/*---------------------------------------------------------------------------*\
| =========                 |                                                 |
| \\      /  F ield         | OpenFOAM: The Open Source CFD Toolbox           |
|  \\    /   O peration     | Version:  2512                                  |
|   \\  /    A nd           | Website:  www.openfoam.com                      |
|    \\/     M anipulation  |                                                 |
\*---------------------------------------------------------------------------*/
Build  : _87ed40d256-20251219 OPENFOAM=2512 version=v2512
Arch   : "LSB;label=32;scalar=64"
Exec   : checkMesh
Date   : Apr 03 2026
Time   : 17:45:14
Host   : DESKTOP-EJKBDEA
PID    : 1663
I/O    : uncollated
Case   : /mnt/c/openfoam-case/VV_cases/V1_solver/long_target100k_Re160
nProcs : 1
trapFpe: Floating point exception trapping enabled (FOAM_SIGFPE).
memory pool : not available
fileModificationChecking : Monitoring run-time modified files using timeStampMaster (fileModificationSkew 5, maxFileModificationPolls 20)
allowSystemOperations : Allowing user-supplied system call operations

// * * * * * * * * * * * * * * * * * * * * * * * * * * * * * * * * * * * * * //
Create time

Create mesh for time = 0

Check mesh...

Time = 0

Mesh stats 
    points:           131408
    faces:            338881
    internal faces:   290351
    cells:            104104
    faces per cell:   6.044263429
    boundary patches: 7
    point zones:      1
    face zones:       0
    cell zones:       0

Overall number of cells of each type:
    hexahedra:     100216
    prisms:        1728
    wedges:        0
    pyramids:      0
    tet wedges:    0
    tetrahedra:    0
    polyhedra:     2160
    Breakdown of polyhedra by number of faces:
        faces   number of cells
            6   624
            7   24
            9   936
           12   560
           15   16

Checking topology...
    Boundary definition OK.
 ***Total number of faces on empty patches is not divisible by the number of cells in the mesh. Hence this mesh is not 1D or 2D.
    Cell to face addressing OK.
    Point usage OK.
    Upper triangular ordering OK.
    Face vertices OK.
    Number of regions: 1 (OK).

Checking patch topology for multiply connected surfaces...
                   Patch    Faces   Points  Surface topology
                   inlet       16       34  ok (non-closed singly connected)
                  outlet       16       34  ok (non-closed singly connected)
                  bottom     1409     1871  ok (non-closed singly connected)
                     top     1409     1871  ok (non-closed singly connected)
                   front    20760    21495  ok (non-closed singly connected)
                    back    20760    21495  ok (non-closed singly connected)
                cylinder     4160     4420  ok (non-closed singly connected)
                    ".*"    48530    48800      ok (closed singly connected)


Checking faceZone topology for multiply connected surfaces...
    No faceZones found.

Checking basic cellZone addressing...
    No cellZones found.

Checking basic pointZone addressing...
               PointZone  PointsBoundingBox
            frozenPoints       0(1e+150 1e+150 1e+150) (-1e+150 -1e+150 -1e+150)

Checking geometry...
    Overall domain bounding box (-0.12 -0.012 -0.005) (0.36 0.012 0.005)
    Mesh has 2 geometric (non-empty/wedge) directions (1 1 0)
    Mesh has 2 solution (non-empty) directions (1 1 0)
 ***Number of edges not aligned with or perpendicular to non-empty directions: 34865
  <<Writing 48867 points on non-aligned edges to set nonAlignedEdges
    Boundary openness (-1.006415818e-19 -2.100750213e-15 1.299946175e-14) OK.
    Max cell openness = 7.036957761e-16 OK.
    Max aspect ratio = 9.71765049 OK.
    Minimum face area = 1.256241652e-09. Maximum face area = 2.211467578e-05.  Face area magnitudes OK.
    Min volume = 7.851510325e-13. Max volume = 4.21730397e-08.  Total volume = 0.0001140691572.  Cell volumes OK.
    Mesh non-orthogonality Max: 62.31331662 average: 9.839490034
    Non-orthogonality check OK.
    Face pyramids OK.
    Max skewness = 0.3644381658 OK.
    Coupled point location match (average 0) OK.

Failed 1 mesh checks.

End

