/*---------------------------------------------------------------------------*\
| =========                 |                                                 |
| \\      /  F ield         | OpenFOAM: The Open Source CFD Toolbox           |
|  \\    /   O peration     | Version:  2512                                  |
|   \\  /    A nd           | Website:  www.openfoam.com                      |
|    \\/     M anipulation  |                                                 |
\*---------------------------------------------------------------------------*/
Build  : _87ed40d256-20251219 OPENFOAM=2512 version=v2512
Arch   : "LSB;label=32;scalar=64"
Exec   : checkMesh
Date   : Apr 03 2026
Time   : 14:14:06
Host   : DESKTOP-EJKBDEA
PID    : 3208
I/O    : uncollated
Case   : /mnt/c/openfoam-case/VV_cases/V1_solver/baseline_medium_Re120
nProcs : 1
trapFpe: Floating point exception trapping enabled (FOAM_SIGFPE).
memory pool : not available
fileModificationChecking : Monitoring run-time modified files using timeStampMaster (fileModificationSkew 5, maxFileModificationPolls 20)
allowSystemOperations : Allowing user-supplied system call operations

// * * * * * * * * * * * * * * * * * * * * * * * * * * * * * * * * * * * * * //
Create time

Create mesh for time = 0

Check mesh...

Time = 0

Mesh stats 
    points:           58516
    faces:            147078
    internal faces:   121014
    cells:            44492
    faces per cell:   6.025622584
    boundary patches: 7
    point zones:      1
    face zones:       0
    cell zones:       0

Overall number of cells of each type:
    hexahedra:     43572
    prisms:        384
    wedges:        0
    pyramids:      0
    tet wedges:    0
    tetrahedra:    0
    polyhedra:     536
    Breakdown of polyhedra by number of faces:
        faces   number of cells
            6   120
            7   24
            9   288
           12   100
           15   4

Checking topology...
    Boundary definition OK.
 ***Total number of faces on empty patches is not divisible by the number of cells in the mesh. Hence this mesh is not 1D or 2D.
    Cell to face addressing OK.
    Point usage OK.
    Upper triangular ordering OK.
    Face vertices OK.
    Number of regions: 1 (OK).

Checking patch topology for multiply connected surfaces...
                   Patch    Faces   Points  Surface topology
                   inlet       16       34  ok (non-closed singly connected)
                  outlet       16       34  ok (non-closed singly connected)
                  bottom      830     1120  ok (non-closed singly connected)
                     top      830     1120  ok (non-closed singly connected)
                   front    11690    12112  ok (non-closed singly connected)
                    back    11690    12112  ok (non-closed singly connected)
                cylinder      992     1116  ok (non-closed singly connected)
                    ".*"    26064    26188      ok (closed singly connected)


Checking faceZone topology for multiply connected surfaces...
    No faceZones found.

Checking basic cellZone addressing...
    No cellZones found.

Checking basic pointZone addressing...
               PointZone  PointsBoundingBox
            frozenPoints       0(1e+150 1e+150 1e+150) (-1e+150 -1e+150 -1e+150)

Checking geometry...
    Overall domain bounding box (-0.096 -0.012 -0.005) (0.24 0.012 0.005)
    Mesh has 2 geometric (non-empty/wedge) directions (1 1 0)
    Mesh has 2 solution (non-empty) directions (1 1 0)
 ***Number of edges not aligned with or perpendicular to non-empty directions: 10155
  <<Writing 15729 points on non-aligned edges to set nonAlignedEdges
    Boundary openness (-4.487002375e-19 -7.482245568e-17 -2.794154803e-15) OK.
    Max cell openness = 5.982828101e-16 OK.
    Max aspect ratio = 10.89198329 OK.
    Minimum face area = 5.119367619e-09. Maximum face area = 2.519437464e-05.  Face area magnitudes OK.
    Min volume = 6.399371882e-12. Max volume = 4.830693343e-08.  Total volume = 7.950961389e-05.  Cell volumes OK.
    Mesh non-orthogonality Max: 62.71802589 average: 7.272082295
    Non-orthogonality check OK.
    Face pyramids OK.
    Max skewness = 0.3664211203 OK.
    Coupled point location match (average 0) OK.

Failed 1 mesh checks.

End

