/*---------------------------------------------------------------------------*\
| =========                 |                                                 |
| \\      /  F ield         | OpenFOAM: The Open Source CFD Toolbox           |
|  \\    /   O peration     | Version:  2512                                  |
|   \\  /    A nd           | Website:  www.openfoam.com                      |
|    \\/     M anipulation  |                                                 |
\*---------------------------------------------------------------------------*/
Build  : _87ed40d256-20251219 OPENFOAM=2512 version=v2512
Arch   : "LSB;label=32;scalar=64"
Exec   : pimpleFoam
Date   : Apr 03 2026
Time   : 14:14:10
Host   : DESKTOP-EJKBDEA
PID    : 3216
I/O    : uncollated
Case   : /mnt/c/openfoam-case/VV_cases/V1_solver/baseline_medium_Re120
nProcs : 1
trapFpe: Floating point exception trapping enabled (FOAM_SIGFPE).
memory pool : not available
fileModificationChecking : Monitoring run-time modified files using timeStampMaster (fileModificationSkew 5, maxFileModificationPolls 20)
allowSystemOperations : Allowing user-supplied system call operations

// * * * * * * * * * * * * * * * * * * * * * * * * * * * * * * * * * * * * * //
Create time

Create mesh for time = 0


PIMPLE: Operating solver in PISO mode

Reading field p

Reading field U

--> FOAM Warning : 
>>> DEPRECATED after version 2212. This is about 36 months old. <<<

    From Foam::exprFixedValueFvPatchField<Type>::exprFixedValueFvPatchField(const Foam::fvPatch&, const Foam::DimensionedField<Type, Foam::volMesh>&, const Foam::dictionary&, Foam::IOobjectOption::readOption) [with Type = Foam::Vector<double>]
    in file expressions/fields/fvPatchFields/exprFixedValueFvPatchField.C at line 110
    Use uniformFixedValue with an expression Function1 instead.
    This boundary condition will be removed in the future
Reading/calculating face flux field phi

Selecting incompressible transport model Newtonian
Selecting turbulence model type laminar
Selecting laminar stress model Stokes
No MRF models present

No finite volume options present
Courant Number mean: 0.08718274272 max: 5.05488979
forceCoeffs forceCoeffs:
    rho: rhoInf
    Freestream density (rhoInf) set to 1.205
    Not including porosity effects
    magUInf: 0.1516
    lRef   : 0.012
    Aref   : 0.00012
    rhoInf : 1.205
    Selecting all coefficients
    - Drag force: Cd
    - Drag force front: Cd(f)
    - Drag force rear: Cd(r)
    - Lift force: Cl
    - Lift force front: Cl(f)
    - Lift force rear: Cl(r)
    - Pitch moment: CmPitch
    - Roll moment: CmRoll
    - Yaw moment: CmYaw
    - Side force: Cs
    - Side force front: Cs(f)
    - Side force rear: Cs(r)


Courant Number mean: 0.01552248846 max: 0.9

Starting time loop

Courant Number mean: 0.01552248846 max: 0.9
deltaT = 0.0001780454248
Time = 0.000178045424794

PIMPLE: iteration 1
DILUPBiCGStab:  Solving for Ux, Initial residual = 0.002241468463, Final residual = 3.956791379e-10, No Iterations 2
DILUPBiCGStab:  Solving for Uy, Initial residual = 0.04755010218, Final residual = 2.905143699e-10, No Iterations 3
GAMG:  Solving for p, Initial residual = 1, Final residual = 0.009477385435, No Iterations 9
GAMG:  Solving for p, Initial residual = 0.6211917932, Final residual = 0.004136349841, No Iterations 5
time step continuity errors : sum local = 7.126214173e-06, global = -2.081161188e-08, cumulative = -2.081161188e-08
GAMG:  Solving for p, Initial residual = 0.1512432735, Final residual = 0.001050851309, No Iterations 5
GAMG:  Solving for p, Initial residual = 0.02884177692, Final residual = 9.076628373e-09, No Iterations 40
time step continuity errors : sum local = 2.581929043e-11, global = -1.642994391e-12, cumulative = -2.081325487e-08
ExecutionTime = 0.8 s  ClockTime = 1 s

forceCoeffs forceCoeffs write:
    Coefficient	Total	Pressure	Viscous	Internal
    Cd:	1011.101856	1004.546725	6.55513014	0
    Cd(f):	505.5463368	502.2687488	3.277588059	0
    Cd(r):	505.5555188	502.2779767	3.277542081	0
    Cl:	-2.012271521	-2.012542668	0.000271146472	0
    Cl(f):	-1.013266736	-1.006271334	-0.006995401971	0
    Cl(r):	-0.9990047853	-1.006271334	0.007266548443	0
    CmPitch:	-0.007130975261	-5.321989342e-11	-0.007130975207	0
    CmRoll:	-0.004590997042	-0.004613986275	2.298923286e-05	0
    CmYaw:	0.007703737175	0.007637705401	6.603177446e-05	0
    Cs:	3.508184628e-05	3.507500762e-05	6.838660388e-09	0
    Cs(f):	0.007721278099	0.007655242905	6.603519379e-05	0
    Cs(r):	-0.007686196252	-0.007620167897	-6.602835513e-05	0

    writing force and moment coefficient files.

Courant Number mean: 0.0168689586 max: 0.3712513453
deltaT = 0.0002136545098
Time = 0.000391699934546

PIMPLE: iteration 1
DILUPBiCGStab:  Solving for Ux, Initial residual = 0.09955576861, Final residual = 2.028105183e-11, No Iterations 3
DILUPBiCGStab:  Solving for Uy, Initial residual = 0.3753843699, Final residual = 1.459513157e-10, No Iterations 3
GAMG:  Solving for p, Initial residual = 0.39026934, Final residual = 0.002747199362, No Iterations 7
GAMG:  Solving for p, Initial residual = 0.5573725813, Final residual = 0.004403683983, No Iterations 5
time step continuity errors : sum local = 1.274597415e-05, global = 5.53061146e-08, cumulative = 3.449285973e-08
GAMG:  Solving for p, Initial residual = 0.1856170203, Final residual = 0.001586285359, No Iterations 5
GAMG:  Solving for p, Initial residual = 0.0399365645, Final residual = 9.918985105e-09, No Iterations 45
time step continuity errors : sum local = 3.159704645e-11, global = 2.819377373e-12, cumulative = 3.44956791e-08
ExecutionTime = 1.13 s  ClockTime = 2 s

forceCoeffs forceCoeffs write:
    Coefficient	Total	Pressure	Viscous	Internal
    Cd:	-495.9806109	-501.5011614	5.520550522	0
    Cd(f):	-247.9829122	-250.7431348	2.760222587	0
    Cd(r):	-247.9976987	-250.7580266	2.760327935	0
    Cl:	1.018618633	1.023987232	-0.005368599262	0
    Cl(f):	0.5067020625	0.5119936163	-0.005291553794	0
    Cl(r):	0.5119165707	0.5119936162	-7.704546783e-05	0
    CmPitch:	-0.002607254089	7.452794457e-11	-0.002607254163	0
    CmRoll:	0.007393247394	0.007445920968	-5.267357367e-05	0
    CmYaw:	-0.02015985167	-0.02009732468	-6.252698204e-05	0
    Cs:	-1.745104193e-05	-1.84956979e-05	1.044655965e-06	0
    Cs(f):	-0.02016857719	-0.02010657253	-6.200465406e-05	0
    Cs(r):	0.02015112615	0.02008807684	6.304931002e-05	0

    writing force and moment coefficient files.

Courant Number mean: 0.02009352007 max: 0.5049082471
deltaT = 0.0002517384705
Time = 0.000643438405072

PIMPLE: iteration 1
DILUPBiCGStab:  Solving for Ux, Initial residual = 0.1331879398, Final residual = 8.461145256e-11, No Iterations 3
DILUPBiCGStab:  Solving for Uy, Initial residual = 0.4427237284, Final residual = 9.773598234e-10, No Iterations 3
GAMG:  Solving for p, Initial residual = 0.4456812534, Final residual = 0.003952841319, No Iterations 6
GAMG:  Solving for p, Initial residual = 0.4931619378, Final residual = 0.004200417177, No Iterations 5
time step continuity errors : sum local = 8.192251834e-06, global = -4.296770075e-08, cumulative = -8.472021644e-09
GAMG:  Solving for p, Initial residual = 0.2916456481, Final residual = 0.002171714691, No Iterations 5
GAMG:  Solving for p, Initial residual = 0.07144313685, Final residual = 8.545811735e-09, No Iterations 46
time step continuity errors : sum local = 9.643748478e-12, global = -6.628858845e-13, cumulative = -8.47268453e-09
ExecutionTime = 1.44 s  ClockTime = 2 s

forceCoeffs forceCoeffs write:
    Coefficient	Total	Pressure	Viscous	Internal
    Cd:	7.569991516	4.677588427	2.892403089	0
    Cd(f):	3.78269707	2.336483298	1.446213773	0
    Cd(r):	3.787294446	2.341105129	1.446189316	0
    Cl:	0.02235614372	0.02123469513	0.00112144859	0
    Cl(f):	0.008997365839	0.01061734753	-0.001619981696	0
    Cl(r):	0.01335877788	0.0106173476	0.002741430285	0
    CmPitch:	-0.002180706021	-3.001759328e-11	-0.002180705991	0
    CmRoll:	-0.002298687734	-0.002310915849	1.222811544e-05	0
    CmYaw:	0.0181923781	0.0182246734	-3.229529822e-05	0
    Cs:	1.749248784e-07	-4.89160966e-08	2.23840975e-07	0
    Cs(f):	0.01819246557	0.01822464895	-3.218337773e-05	0
    Cs(r):	-0.01819229064	-0.01822469786	3.240721871e-05	0

    writing force and moment coefficient files.

Courant Number mean: 0.02364402682 max: 0.4212571537
deltaT = 0.0003020861646
Time = 0.000945524569702

PIMPLE: iteration 1
DILUPBiCGStab:  Solving for Ux, Initial residual = 0.05772712917, Final residual = 4.076309041e-11, No Iterations 3
DILUPBiCGStab:  Solving for Uy, Initial residual = 0.1397595187, Final residual = 3.77985724e-10, No Iterations 3
GAMG:  Solving for p, Initial residual = 0.5757025457, Final residual = 0.005151934188, No Iterations 6
GAMG:  Solving for p, Initial residual = 0.2254230558, Final residual = 0.00123354146, No Iterations 6
time step continuity errors : sum local = 8.62156782e-07, global = 7.119405831e-09, cumulative = -1.353278699e-09
GAMG:  Solving for p, Initial residual = 0.1446700636, Final residual = 0.0009467846532, No Iterations 5
GAMG:  Solving for p, Initial residual = 0.02847055205, Final residual = 6.322747539e-09, No Iterations 42
time step continuity errors : sum local = 3.082020383e-12, global = 3.146486227e-13, cumulative = -1.352964051e-09
ExecutionTime = 1.7 s  ClockTime = 2 s

forceCoeffs forceCoeffs write:
    Coefficient	Total	Pressure	Viscous	Internal
    Cd:	3.706045542	1.222294113	2.483751429	0
    Cd(f):	1.852186471	0.6103085769	1.241877894	0
    Cd(r):	1.853859071	0.6119855359	1.241873535	0
    Cl:	-0.03060431411	-0.03181942764	0.001215113535	0
    Cl(f):	-0.01729032803	-0.01590971382	-0.001380614211	0
    Cl(r):	-0.01331398608	-0.01590971382	0.002595727746	0
    CmPitch:	-0.001988170975	3.874028036e-12	-0.001988170979	0
    CmRoll:	-0.0008362998956	-0.0008384795013	2.179605751e-06	0
    CmYaw:	0.002309347502	0.002257027847	5.231965533e-05	0
    Cs:	2.247001706e-07	2.481876331e-07	-2.348746254e-08	0
    Cs(f):	0.002309459852	0.00225715194	5.23079116e-05	0
    Cs(r):	-0.002309235152	-0.002256903753	-5.233139906e-05	0

    writing force and moment coefficient files.

Courant Number mean: 0.02833370452 max: 0.4601313414
deltaT = 0.0003611731087
Time = 0.00130669767837

PIMPLE: iteration 1
DILUPBiCGStab:  Solving for Ux, Initial residual = 0.01235513052, Final residual = 4.202062038e-11, No Iterations 3
DILUPBiCGStab:  Solving for Uy, Initial residual = 0.07515955863, Final residual = 4.727226907e-10, No Iterations 3
GAMG:  Solving for p, Initial residual = 0.6800482215, Final residual = 0.005891587357, No Iterations 5
GAMG:  Solving for p, Initial residual = 0.1700413552, Final residual = 0.001219680543, No Iterations 5
time step continuity errors : sum local = 4.09244402e-07, global = 2.260243015e-10, cumulative = -1.126939749e-09
GAMG:  Solving for p, Initial residual = 0.1084521072, Final residual = 0.0007630919734, No Iterations 5
GAMG:  Solving for p, Initial residual = 0.01062426468, Final residual = 9.083739966e-09, No Iterations 37
time step continuity errors : sum local = 2.540647476e-12, global = 1.798432143e-13, cumulative = -1.126759906e-09
ExecutionTime = 1.97 s  ClockTime = 3 s

forceCoeffs forceCoeffs write:
    Coefficient	Total	Pressure	Viscous	Internal
    Cd:	7.56461514	5.314224116	2.250391024	0
    Cd(f):	3.782699666	2.657484874	1.125214791	0
    Cd(r):	3.781915475	2.656739242	1.125176233	0
    Cl:	-0.008862031561	-0.009534776037	0.0006727444762	0
    Cl(f):	-0.006187356444	-0.004767388019	-0.001419968425	0
    Cl(r):	-0.002674675117	-0.004767388018	0.002092712901	0
    CmPitch:	-0.001756340663	-3.986808005e-13	-0.001756340663	0
    CmRoll:	0.000392095457	0.0003728161941	1.927926284e-05	0
    CmYaw:	-0.002779118167	-0.002811321295	3.220312816e-05	0
    Cs:	2.233432881e-07	2.215350879e-07	1.808200112e-09	0
    Cs(f):	-0.002779006495	-0.002811210527	3.220403226e-05	0
    Cs(r):	0.002779229838	0.002811432062	-3.220222406e-05	0

    writing force and moment coefficient files.

Courant Number mean: 0.03379598021 max: 0.5065965964
deltaT = 0.000425337732
Time = 0.00173203541034

PIMPLE: iteration 1
DILUPBiCGStab:  Solving for Ux, Initial residual = 0.007012476946, Final residual = 4.944375831e-11, No Iterations 3
DILUPBiCGStab:  Solving for Uy, Initial residual = 0.05948248412, Final residual = 6.772579308e-10, No Iterations 3
GAMG:  Solving for p, Initial residual = 0.5058451977, Final residual = 0.003376600152, No Iterations 6
GAMG:  Solving for p, Initial residual = 0.1447971372, Final residual = 0.0009707050917, No Iterations 5
time step continuity errors : sum local = 1.750886251e-07, global = 7.528452267e-10, cumulative = -3.739146792e-10
GAMG:  Solving for p, Initial residual = 0.07796396342, Final residual = 0.0004907454441, No Iterations 6
GAMG:  Solving for p, Initial residual = 0.01246075144, Final residual = 7.228977658e-09, No Iterations 38
time step continuity errors : sum local = 1.251356198e-12, global = 1.352339679e-13, cumulative = -3.737794452e-10
ExecutionTime = 2.21 s  ClockTime = 3 s

forceCoeffs forceCoeffs write:
    Coefficient	Total	Pressure	Viscous	Internal
    Cd:	6.315580073	4.224871762	2.090708312	0
    Cd(f):	3.157947652	2.112570244	1.045377408	0
    Cd(r):	3.157632421	2.112301517	1.045330904	0
    Cl:	-0.01037004519	-0.01070723003	0.0003371848414	0
    Cl(f):	-0.006722171775	-0.005353615015	-0.001368556759	0
    Cl(r):	-0.003647873415	-0.005353615016	0.001705741601	0
    CmPitch:	-0.00153714918	2.931191717e-13	-0.00153714918	0
    CmRoll:	0.0001576151661	0.0001343633548	2.325181136e-05	0
    CmYaw:	-0.001673603244	-0.001672769503	-8.337410796e-07	0
    Cs:	1.509563915e-07	1.376606668e-07	1.329572476e-08	0
    Cs(f):	-0.001673527766	-0.001672700673	-8.270932172e-07	0
    Cs(r):	0.001673678723	0.001672838334	8.403889419e-07	0

    writing force and moment coefficient files.

Courant Number mean: 0.03973343056 max: 0.5891032821
deltaT = 0.0004903185206
Time = 0.00222235393099

PIMPLE: iteration 1
DILUPBiCGStab:  Solving for Ux, Initial residual = 0.002923277419, Final residual = 6.739302547e-11, No Iterations 3
DILUPBiCGStab:  Solving for Uy, Initial residual = 0.0235917251, Final residual = 7.296462331e-10, No Iterations 3
GAMG:  Solving for p, Initial residual = 0.3232677056, Final residual = 0.001940153657, No Iterations 5
GAMG:  Solving for p, Initial residual = 0.03484944839, Final residual = 0.0003187120117, No Iterations 5
time step continuity errors : sum local = 4.846807993e-08, global = 6.542676149e-11, cumulative = -3.083526837e-10
GAMG:  Solving for p, Initial residual = 0.03700058576, Final residual = 0.0002724644396, No Iterations 5
GAMG:  Solving for p, Initial residual = 0.004231619259, Final residual = 8.151435896e-09, No Iterations 30
time step continuity errors : sum local = 1.20885161e-12, global = 7.743809375e-14, cumulative = -3.082752456e-10
ExecutionTime = 2.43 s  ClockTime = 3 s

forceCoeffs forceCoeffs write:
    Coefficient	Total	Pressure	Viscous	Internal
    Cd:	5.802334977	3.863127397	1.93920758	0
    Cd(f):	2.901264822	1.931639856	0.9696249657	0
    Cd(r):	2.901070155	1.93148754	0.9695826147	0
    Cl:	-0.01067212987	-0.01075535992	8.323004922e-05	0
    Cl(f):	-0.006692044507	-0.005377679962	-0.001314364545	0
    Cl(r):	-0.003980085367	-0.005377679962	0.001397594595	0
    CmPitch:	-0.00135597957	-7.39446074e-14	-0.00135597957	0
    CmRoll:	9.733330822e-05	7.615783017e-05	2.117547805e-05	0
    CmYaw:	-0.0004503304696	-0.0004332709094	-1.705956018e-05	0
    Cs:	1.161922198e-07	1.111885391e-07	5.003680733e-09	0
    Cs(f):	-0.0004502723735	-0.0004332153152	-1.705705834e-05	0
    Cs(r):	0.0004503885657	0.0004333265037	1.706206202e-05	0

    writing force and moment coefficient files.

Courant Number mean: 0.04575352374 max: 0.6737490103
deltaT = 0.0005558157105
Time = 0.00277816964151

PIMPLE: iteration 1
DILUPBiCGStab:  Solving for Ux, Initial residual = 0.002002724735, Final residual = 1.000856604e-10, No Iterations 3
DILUPBiCGStab:  Solving for Uy, Initial residual = 0.01635893025, Final residual = 6.722992111e-11, No Iterations 3
GAMG:  Solving for p, Initial residual = 0.2147367051, Final residual = 0.001892361201, No Iterations 4
GAMG:  Solving for p, Initial residual = 0.02284876894, Final residual = 0.0001698128385, No Iterations 5
time step continuity errors : sum local = 2.448378309e-08, global = 1.078266872e-10, cumulative = -2.004485585e-10
GAMG:  Solving for p, Initial residual = 0.02303968799, Final residual = 0.0001677667188, No Iterations 5
GAMG:  Solving for p, Initial residual = 0.003344639892, Final residual = 9.589829007e-09, No Iterations 29
time step continuity errors : sum local = 1.361269779e-12, global = 1.031054568e-13, cumulative = -2.00345453e-10
ExecutionTime = 2.63 s  ClockTime = 3 s

forceCoeffs forceCoeffs write:
    Coefficient	Total	Pressure	Viscous	Internal
    Cd:	5.32656114	3.523910804	1.802650336	0
    Cd(f):	2.663384903	1.762043041	0.9013418627	0
    Cd(r):	2.663176237	1.761867763	0.9013084736	0
    Cl:	-0.01102262779	-0.01093678004	-8.58477534e-05	0
    Cl(f):	-0.006726492716	-0.005468390019	-0.001258102697	0
    Cl(r):	-0.004296135076	-0.005468390019	0.001172254943	0
    CmPitch:	-0.00121517882	-3.032723656e-14	-0.00121517882	0
    CmRoll:	0.000104333267	8.763871452e-05	1.669455244e-05	0
    CmYaw:	-0.0003225007209	-0.0003066273185	-1.587340242e-05	0
    Cs:	9.680025965e-08	9.743228144e-08	-6.320217876e-10	0
    Cs(f):	-0.0003224523208	-0.0003065786023	-1.587371844e-05	0
    Cs(r):	0.000322549121	0.0003066760346	1.587308641e-05	0

    writing force and moment coefficient files.

Courant Number mean: 0.05183704772 max: 0.7624139806
deltaT = 0.0006214275897
Time = 0.00339959723117

PIMPLE: iteration 1
DILUPBiCGStab:  Solving for Ux, Initial residual = 0.001530049113, Final residual = 1.590494528e-10, No Iterations 3
DILUPBiCGStab:  Solving for Uy, Initial residual = 0.01282728549, Final residual = 1.007948068e-10, No Iterations 3
GAMG:  Solving for p, Initial residual = 0.1509256253, Final residual = 0.001203297566, No Iterations 4
GAMG:  Solving for p, Initial residual = 0.01882429646, Final residual = 0.0001008538495, No Iterations 5
time step continuity errors : sum local = 1.527087006e-08, global = 9.607262051e-11, cumulative = -1.042728325e-10
GAMG:  Solving for p, Initial residual = 0.01746852219, Final residual = 0.0001468307546, No Iterations 5
GAMG:  Solving for p, Initial residual = 0.003154785454, Final residual = 8.817658932e-09, No Iterations 27
time step continuity errors : sum local = 1.318046211e-12, global = 7.869543229e-14, cumulative = -1.041941371e-10
ExecutionTime = 2.84 s  ClockTime = 3 s

forceCoeffs forceCoeffs write:
    Coefficient	Total	Pressure	Viscous	Internal
    Cd:	4.951627707	3.26999399	1.681633717	0
    Cd(f):	2.475879971	1.635051055	0.840828916	0
    Cd(r):	2.475747736	1.634942935	0.8408048012	0
    Cl:	-0.01105884242	-0.01086080858	-0.0001980338399	0
    Cl(f):	-0.006634110735	-0.005430404292	-0.001203706443	0
    Cl(r):	-0.004424731689	-0.005430404292	0.001005672603	0
    CmPitch:	-0.001104689523	-5.642029337e-14	-0.001104689523	0
    CmRoll:	6.611766358e-05	5.406026595e-05	1.205739764e-05	0
    CmYaw:	-0.0002166653799	-0.0002043334572	-1.233192268e-05	0
    Cs:	9.021239284e-08	8.980354056e-08	4.088522776e-10	0
    Cs(f):	-0.0002166202737	-0.0002042885555	-1.233171825e-05	0
    Cs(r):	0.0002167104861	0.000204378359	1.23321271e-05	0

    writing force and moment coefficient files.

Courant Number mean: 0.05794031163 max: 0.8534074162
deltaT = 0.0006553550157
Time = 0.00405495224689

PIMPLE: iteration 1
DILUPBiCGStab:  Solving for Ux, Initial residual = 0.001245262002, Final residual = 1.87699762e-10, No Iterations 3
DILUPBiCGStab:  Solving for Uy, Initial residual = 0.01034917278, Final residual = 1.102912547e-10, No Iterations 3
GAMG:  Solving for p, Initial residual = 0.08631491359, Final residual = 0.0007502968101, No Iterations 4
GAMG:  Solving for p, Initial residual = 0.01380965527, Final residual = 7.627558481e-05, No Iterations 5
time step continuity errors : sum local = 1.199367433e-08, global = 6.344236389e-11, cumulative = -4.075177318e-11
GAMG:  Solving for p, Initial residual = 0.01157839429, Final residual = 6.651391258e-05, No Iterations 5
GAMG:  Solving for p, Initial residual = 0.002533133835, Final residual = 8.414022505e-09, No Iterations 23
time step continuity errors : sum local = 1.31137327e-12, global = -2.400844821e-14, cumulative = -4.077578162e-11
ExecutionTime = 3.07 s  ClockTime = 4 s

forceCoeffs forceCoeffs write:
    Coefficient	Total	Pressure	Viscous	Internal
    Cd:	4.654630091	3.07540734	1.579222751	0
    Cd(f):	2.327351707	1.537732251	0.7896194557	0
    Cd(r):	2.327278384	1.537675088	0.7896032954	0
    Cl:	-0.01105667028	-0.0107883047	-0.0002683655744	0
    Cl(f):	-0.006546332794	-0.005394152352	-0.001152180442	0
    Cl(r):	-0.004510337485	-0.005394152352	0.0008838148674	0
    CmPitch:	-0.001017997655	-1.984292743e-14	-0.001017997655	0
    CmRoll:	3.666161158e-05	2.858146546e-05	8.080146127e-06	0
    CmYaw:	-0.0001244298711	-0.0001159471646	-8.482706517e-06	0
    Cs:	8.411393853e-08	8.369370237e-08	4.20236161e-10	0
    Cs(f):	-0.0001243878141	-0.0001159053177	-8.482496399e-06	0
    Cs(r):	0.0001244719281	0.0001159890114	8.482916635e-06	0

    writing force and moment coefficient files.

Courant Number mean: 0.06109231665 max: 0.8979849273
deltaT = 0.0006568256284
Time = 0.00471177787527

PIMPLE: iteration 1
DILUPBiCGStab:  Solving for Ux, Initial residual = 0.001046435966, Final residual = 1.563815667e-10, No Iterations 3
DILUPBiCGStab:  Solving for Uy, Initial residual = 0.008109733269, Final residual = 8.981555553e-11, No Iterations 3
GAMG:  Solving for p, Initial residual = 0.05127077777, Final residual = 0.0004715616167, No Iterations 4
GAMG:  Solving for p, Initial residual = 0.01108807296, Final residual = 6.491885228e-05, No Iterations 5
time step continuity errors : sum local = 9.996561189e-09, global = 4.518049277e-11, cumulative = 4.404711147e-12
GAMG:  Solving for p, Initial residual = 0.008130714689, Final residual = 4.864266794e-05, No Iterations 5
GAMG:  Solving for p, Initial residual = 0.002116636845, Final residual = 9.163762165e-09, No Iterations 22
time step continuity errors : sum local = 1.400519358e-12, global = -5.625828523e-14, cumulative = 4.348452862e-12
ExecutionTime = 3.26 s  ClockTime = 4 s

forceCoeffs forceCoeffs write:
    Coefficient	Total	Pressure	Viscous	Internal
    Cd:	4.417032863	2.92235185	1.494681012	0
    Cd(f):	2.208533229	1.461187546	0.7473456831	0
    Cd(r):	2.208499634	1.461164304	0.7473353292	0
    Cl:	-0.01096560547	-0.01065175366	-0.0003138518179	0
    Cl(f):	-0.006432329831	-0.005325876828	-0.001106453003	0
    Cl(r):	-0.004533275643	-0.005325876828	0.000792601185	0
    CmPitch:	-0.000949527094	-2.840521931e-14	-0.000949527094	0
    CmRoll:	1.679765146e-05	1.16207446e-05	5.176906864e-06	0
    CmYaw:	-0.0001074233853	-0.0001017564319	-5.666953351e-06	0
    Cs:	7.905012339e-08	7.850358092e-08	5.465424624e-10	0
    Cs(f):	-0.0001073838602	-0.0001017171801	-5.66668008e-06	0
    Cs(r):	0.0001074629104	0.0001017956837	5.667226622e-06	0

    writing force and moment coefficient files.

Courant Number mean: 0.06122055189 max: 0.8956260596
deltaT = 0.0006600333468
Time = 0.00537181122203

PIMPLE: iteration 1
DILUPBiCGStab:  Solving for Ux, Initial residual = 0.0009222578845, Final residual = 1.280371633e-10, No Iterations 3
DILUPBiCGStab:  Solving for Uy, Initial residual = 0.00693160388, Final residual = 7.55837839e-11, No Iterations 3
GAMG:  Solving for p, Initial residual = 0.03471957599, Final residual = 0.0003421641653, No Iterations 4
GAMG:  Solving for p, Initial residual = 0.009129306516, Final residual = 5.308552119e-05, No Iterations 5
time step continuity errors : sum local = 8.103603549e-09, global = 3.734737906e-11, cumulative = 4.169583192e-11
GAMG:  Solving for p, Initial residual = 0.006351252968, Final residual = 3.953757421e-05, No Iterations 5
GAMG:  Solving for p, Initial residual = 0.001831176623, Final residual = 8.513891426e-09, No Iterations 22
time step continuity errors : sum local = 1.291259951e-12, global = -6.912949555e-14, cumulative = 4.162670242e-11
ExecutionTime = 3.46 s  ClockTime = 4 s

forceCoeffs forceCoeffs write:
    Coefficient	Total	Pressure	Viscous	Internal
    Cd:	4.218166332	2.795251628	1.422914704	0
    Cd(f):	2.10908989	1.397629377	0.7114605137	0
    Cd(r):	2.109076441	1.397622251	0.7114541898	0
    Cl:	-0.0109676024	-0.01062038073	-0.0003472216633	0
    Cl(f):	-0.006376710404	-0.005310190367	-0.001066520037	0
    Cl(r):	-0.004590891993	-0.005310190367	0.0007192983738	0
    CmPitch:	-0.0008929092055	-2.024019723e-14	-0.0008929092055	0
    CmRoll:	6.724644177e-06	3.562712958e-06	3.161931219e-06	0
    CmYaw:	-8.644126678e-05	-8.247921456e-05	-3.962052224e-06	0
    Cs:	7.46276271e-08	7.402241139e-08	6.052157151e-10	0
    Cs(f):	-8.640395297e-05	-8.244220335e-05	-3.961749616e-06	0
    Cs(r):	8.64785806e-05	8.251622576e-05	3.962354832e-06	0

    writing force and moment coefficient files.

Courant Number mean: 0.06151132444 max: 0.8940559365
deltaT = 0.0006644215287
Time = 0.00603623275077

PIMPLE: iteration 1
DILUPBiCGStab:  Solving for Ux, Initial residual = 0.0008376086717, Final residual = 1.09549385e-10, No Iterations 3
DILUPBiCGStab:  Solving for Uy, Initial residual = 0.006255117183, Final residual = 9.976708405e-10, No Iterations 3
GAMG:  Solving for p, Initial residual = 0.02636457956, Final residual = 0.0002490575415, No Iterations 4
GAMG:  Solving for p, Initial residual = 0.007571440661, Final residual = 4.259876461e-05, No Iterations 5
time step continuity errors : sum local = 6.491728782e-09, global = 3.194423949e-11, cumulative = 7.357094191e-11
GAMG:  Solving for p, Initial residual = 0.005233749223, Final residual = 3.425667046e-05, No Iterations 5
GAMG:  Solving for p, Initial residual = 0.001602196718, Final residual = 9.751807687e-09, No Iterations 21
time step continuity errors : sum local = 1.478431648e-12, global = -9.153049863e-14, cumulative = 7.347941141e-11
ExecutionTime = 3.64 s  ClockTime = 4 s

forceCoeffs forceCoeffs write:
    Coefficient	Total	Pressure	Viscous	Internal
    Cd:	4.048224037	2.687441916	1.360782121	0
    Cd(f):	2.024113144	1.343720274	0.6803928701	0
    Cd(r):	2.024110894	1.343721642	0.6803892512	0
    Cl:	-0.0109088555	-0.01053383491	-0.0003750205899	0
    Cl(f):	-0.006299103567	-0.005266917457	-0.001032186111	0
    Cl(r):	-0.004609751936	-0.005266917457	0.0006571655207	0
    CmPitch:	-0.0008446758157	-2.275042487e-14	-0.0008446758157	0
    CmRoll:	1.125055179e-06	-6.844067878e-07	1.809461967e-06	0
    CmYaw:	-7.585029187e-05	-7.294122658e-05	-2.909065282e-06	0
    Cs:	7.084613089e-08	7.02278706e-08	6.182602873e-10	0
    Cs(f):	-7.58148688e-05	-7.290611265e-05	-2.908756152e-06	0
    Cs(r):	7.588571493e-05	7.297634052e-05	2.909374412e-06	0

    writing force and moment coefficient files.

Courant Number mean: 0.06191282728 max: 0.8930918819
deltaT = 0.0006695608683
Time = 0.00670579361904

PIMPLE: iteration 1
DILUPBiCGStab:  Solving for Ux, Initial residual = 0.0007749518992, Final residual = 9.726557374e-11, No Iterations 3
DILUPBiCGStab:  Solving for Uy, Initial residual = 0.005803272655, Final residual = 8.919616867e-10, No Iterations 3
GAMG:  Solving for p, Initial residual = 0.02122162215, Final residual = 0.0001988430844, No Iterations 4
GAMG:  Solving for p, Initial residual = 0.006456734163, Final residual = 3.514388546e-05, No Iterations 5
time step continuity errors : sum local = 5.375250927e-09, global = 2.756232251e-11, cumulative = 1.010417339e-10
GAMG:  Solving for p, Initial residual = 0.004498091715, Final residual = 3.011731582e-05, No Iterations 5
GAMG:  Solving for p, Initial residual = 0.001413703554, Final residual = 9.014405439e-09, No Iterations 21
time step continuity errors : sum local = 1.372929828e-12, global = -9.44492761e-14, cumulative = 1.009472846e-10
ExecutionTime = 3.83 s  ClockTime = 4 s

forceCoeffs forceCoeffs write:
    Coefficient	Total	Pressure	Viscous	Internal
    Cd:	3.901692777	2.595431173	1.306261604	0
    Cd(f):	1.950845319	1.297713605	0.653131714	0
    Cd(r):	1.950847458	1.297717568	0.65312989	0
    Cl:	-0.01088185682	-0.01048252755	-0.0003993292698	0
    Cl(f):	-0.0062436637	-0.005241263776	-0.001002399924	0
    Cl(r):	-0.004638193121	-0.005241263776	0.0006030706545	0
    CmPitch:	-0.0008027352894	-1.627069749e-14	-0.0008027352894	0
    CmRoll:	-1.069574868e-06	-1.981528053e-06	9.119531848e-07	0
    CmYaw:	-6.487699786e-05	-6.261031888e-05	-2.266678983e-06	0
    Cs:	6.749335363e-08	6.691086681e-08	5.824868224e-10	0
    Cs(f):	-6.484325118e-05	-6.257686344e-05	-2.26638774e-06	0
    Cs(r):	6.491074454e-05	6.264377431e-05	2.266970227e-06	0

    writing force and moment coefficient files.

Courant Number mean: 0.06238506928 max: 0.8925168437
deltaT = 0.0006751746879
Time = 0.00738096830698

PIMPLE: iteration 1
DILUPBiCGStab:  Solving for Ux, Initial residual = 0.0007271119584, Final residual = 8.840634258e-11, No Iterations 3
DILUPBiCGStab:  Solving for Uy, Initial residual = 0.005439509627, Final residual = 8.076197202e-10, No Iterations 3
GAMG:  Solving for p, Initial residual = 0.01876142374, Final residual = 0.0001748995138, No Iterations 4
GAMG:  Solving for p, Initial residual = 0.005752628344, Final residual = 3.033115387e-05, No Iterations 5
time step continuity errors : sum local = 4.664483057e-09, global = 2.355921515e-11, cumulative = 1.245064998e-10
GAMG:  Solving for p, Initial residual = 0.003959812978, Final residual = 2.715315446e-05, No Iterations 5
GAMG:  Solving for p, Initial residual = 0.001262166678, Final residual = 8.375727408e-09, No Iterations 21
time step continuity errors : sum local = 1.28327235e-12, global = -9.244995232e-14, cumulative = 1.244140498e-10
ExecutionTime = 4.05 s  ClockTime = 5 s

forceCoeffs forceCoeffs write:
    Coefficient	Total	Pressure	Viscous	Internal
    Cd:	3.773751031	2.515803451	1.25794758	0
    Cd(f):	1.886870552	1.257896455	0.6289740971	0
    Cd(r):	1.886880479	1.257906996	0.6289734828	0
    Cl:	-0.01082410185	-0.01040266029	-0.0004214415612	0
    Cl(f):	-0.006177766301	-0.005201330144	-0.0009764361569	0
    Cl(r):	-0.004646335549	-0.005201330144	0.0005549945957	0
    CmPitch:	-0.0007657153763	-1.772894662e-14	-0.0007657153763	0
    CmRoll:	-4.963539119e-06	-5.270711845e-06	3.071727258e-07	0
    CmYaw:	-5.561525462e-05	-5.378354446e-05	-1.831710161e-06	0
    Cs:	6.455689813e-08	6.401847e-08	5.384281308e-10	0
    Cs(f):	-5.558297617e-05	-5.375153523e-05	-1.831440947e-06	0
    Cs(r):	5.564753307e-05	5.38155537e-05	1.831979375e-06	0

    writing force and moment coefficient files.

Courant Number mean: 0.06290221642 max: 0.8921772637
deltaT = 0.000681094715
Time = 0.00806206302194

PIMPLE: iteration 1
DILUPBiCGStab:  Solving for Ux, Initial residual = 0.0006878147031, Final residual = 8.15992942e-11, No Iterations 3
DILUPBiCGStab:  Solving for Uy, Initial residual = 0.005153596804, Final residual = 7.404659726e-10, No Iterations 3
GAMG:  Solving for p, Initial residual = 0.01629918606, Final residual = 0.0001488750707, No Iterations 4
GAMG:  Solving for p, Initial residual = 0.005163487668, Final residual = 2.685908734e-05, No Iterations 5
time step continuity errors : sum local = 4.167191789e-09, global = 2.075137727e-11, cumulative = 1.451654271e-10
GAMG:  Solving for p, Initial residual = 0.003522323921, Final residual = 2.45164398e-05, No Iterations 5
GAMG:  Solving for p, Initial residual = 0.001132879596, Final residual = 7.954764966e-09, No Iterations 21
time step continuity errors : sum local = 1.230225399e-12, global = -9.006248933e-14, cumulative = 1.450753646e-10
ExecutionTime = 4.25 s  ClockTime = 5 s

forceCoeffs forceCoeffs write:
    Coefficient	Total	Pressure	Viscous	Internal
    Cd:	3.661363371	2.446573589	1.214789782	0
    Cd(f):	1.830677261	1.22328248	0.6073947811	0
    Cd(r):	1.83068611	1.223291109	0.6073950008	0
    Cl:	-0.01077872182	-0.01033716297	-0.0004415588458	0
    Cl(f):	-0.006122011384	-0.005168581486	-0.0009534298979	0
    Cl(r):	-0.004656710434	-0.005168581486	0.0005118710522	0
    CmPitch:	-0.0007326504751	-1.539001308e-14	-0.000732650475	0
    CmRoll:	-4.424536338e-06	-4.314691074e-06	-1.098452647e-07	0
    CmYaw:	-4.443031728e-05	-4.292425677e-05	-1.506060506e-06	0
    Cs:	6.190178939e-08	6.144697515e-08	4.548142395e-10	0
    Cs(f):	-4.439936638e-05	-4.289353328e-05	-1.505833099e-06	0
    Cs(r):	4.446126817e-05	4.295498026e-05	1.506287913e-06	0

    writing force and moment coefficient files.

Courant Number mean: 0.06344846771 max: 0.8919910503
deltaT = 0.0006872100827
Time = 0.00874927310466

PIMPLE: iteration 1
DILUPBiCGStab:  Solving for Ux, Initial residual = 0.0006556268932, Final residual = 7.614781614e-11, No Iterations 3
DILUPBiCGStab:  Solving for Uy, Initial residual = 0.004905732474, Final residual = 6.87193531e-10, No Iterations 3
GAMG:  Solving for p, Initial residual = 0.01516180655, Final residual = 0.000136539328, No Iterations 4
GAMG:  Solving for p, Initial residual = 0.00473223013, Final residual = 2.428922574e-05, No Iterations 5
time step continuity errors : sum local = 3.802913925e-09, global = 1.838554251e-11, cumulative = 1.634609071e-10
GAMG:  Solving for p, Initial residual = 0.00319583116, Final residual = 2.255009229e-05, No Iterations 5
GAMG:  Solving for p, Initial residual = 0.001030272624, Final residual = 9.863352823e-09, No Iterations 20
time step continuity errors : sum local = 1.539876972e-12, global = -1.088463113e-13, cumulative = 1.633520608e-10
ExecutionTime = 4.43 s  ClockTime = 5 s

forceCoeffs forceCoeffs write:
    Coefficient	Total	Pressure	Viscous	Internal
    Cd:	3.560977599	2.385006108	1.175971491	0
    Cd(f):	1.780482809	1.192497448	0.587985361	0
    Cd(r):	1.78049479	1.192508661	0.5879861299	0
    Cl:	-0.01074079038	-0.01028062325	-0.0004601671332	0
    Cl(f):	-0.006073220777	-0.005140311623	-0.0009329091537	0
    Cl(r):	-0.004667569602	-0.005140311623	0.0004727420205	0
    CmPitch:	-0.0007028255871	-1.542088346e-14	-0.0007028255871	0
    CmRoll:	-5.990764383e-06	-5.606285917e-06	-3.844784656e-07	0
    CmYaw:	-3.962670167e-05	-3.83865391e-05	-1.240162568e-06	0
    Cs:	5.954323371e-08	5.915258373e-08	3.906499791e-10	0
    Cs(f):	-3.959693005e-05	-3.835696281e-05	-1.239967243e-06	0
    Cs(r):	3.965647328e-05	3.841611539e-05	1.240357893e-06	0

    writing force and moment coefficient files.

Courant Number mean: 0.06401341667 max: 0.8918965638
deltaT = 0.0006934538147
Time = 0.00944272691932

PIMPLE: iteration 1
DILUPBiCGStab:  Solving for Ux, Initial residual = 0.0006284285568, Final residual = 7.15383916e-11, No Iterations 3
DILUPBiCGStab:  Solving for Uy, Initial residual = 0.004689010377, Final residual = 6.440217966e-10, No Iterations 3
GAMG:  Solving for p, Initial residual = 0.01401185079, Final residual = 0.0001208041349, No Iterations 4
GAMG:  Solving for p, Initial residual = 0.004342636766, Final residual = 2.209692145e-05, No Iterations 5
time step continuity errors : sum local = 3.498071476e-09, global = 1.648280432e-11, cumulative = 1.798348651e-10
GAMG:  Solving for p, Initial residual = 0.002921424336, Final residual = 2.070452138e-05, No Iterations 5
GAMG:  Solving for p, Initial residual = 0.0009401881827, Final residual = 9.280376773e-09, No Iterations 20
time step continuity errors : sum local = 1.465397779e-12, global = -1.047908292e-13, cumulative = 1.797300743e-10
ExecutionTime = 4.63 s  ClockTime = 5 s

forceCoeffs forceCoeffs write:
    Coefficient	Total	Pressure	Viscous	Internal
    Cd:	3.471270881	2.330431784	1.140839097	0
    Cd(f):	1.735627939	1.165208974	0.5704189652	0
    Cd(r):	1.735642942	1.16522281	0.5704201315	0
    Cl:	-0.01069993938	-0.01022243564	-0.0004775037441	0
    Cl(f):	-0.006025686532	-0.00511121782	-0.0009144687127	0
    Cl(r):	-0.004674252851	-0.00511121782	0.0004369649685	0
    CmPitch:	-0.0006757168406	-1.529561136e-14	-0.0006757168406	0
    CmRoll:	-7.501452343e-06	-6.918311084e-06	-5.83141259e-07	0
    CmYaw:	-3.421725542e-05	-3.316440561e-05	-1.052849803e-06	0
    Cs:	5.742058727e-08	5.708197623e-08	3.386110382e-10	0
    Cs(f):	-3.418854512e-05	-3.313586463e-05	-1.052680498e-06	0
    Cs(r):	3.424596571e-05	3.31929466e-05	1.053019109e-06	0

    writing force and moment coefficient files.

Courant Number mean: 0.06459068602 max: 0.8918677191
deltaT = 0.0006997769062
Time = 0.0101425038255

PIMPLE: iteration 1
DILUPBiCGStab:  Solving for Ux, Initial residual = 0.0006055488437, Final residual = 6.757319646e-11, No Iterations 3
DILUPBiCGStab:  Solving for Uy, Initial residual = 0.004503220074, Final residual = 6.089194992e-10, No Iterations 3
GAMG:  Solving for p, Initial residual = 0.01359889873, Final residual = 0.0001157582372, No Iterations 4
GAMG:  Solving for p, Initial residual = 0.004018500632, Final residual = 2.012542895e-05, No Iterations 5
time step continuity errors : sum local = 3.218673516e-09, global = 1.477286095e-11, cumulative = 1.945029352e-10
GAMG:  Solving for p, Initial residual = 0.002691409908, Final residual = 1.920046723e-05, No Iterations 5
GAMG:  Solving for p, Initial residual = 0.0008622199847, Final residual = 8.700425153e-09, No Iterations 20
time step continuity errors : sum local = 1.388185997e-12, global = -9.976964613e-14, cumulative = 1.944031656e-10
ExecutionTime = 4.83 s  ClockTime = 5 s

forceCoeffs forceCoeffs write:
    Coefficient	Total	Pressure	Viscous	Internal
    Cd:	3.390304759	2.281433607	1.108871152	0
    Cd(f):	1.695144727	1.140709879	0.5544348475	0
    Cd(r):	1.695160033	1.140723728	0.5544363046	0
    Cl:	-0.01064328818	-0.01014968322	-0.0004936049652	0
    Cl(f):	-0.005972562003	-0.00507484161	-0.0008977203936	0
    Cl(r):	-0.004670726181	-0.00507484161	0.0004041154284	0
    CmPitch:	-0.000650917911	-1.294386638e-14	-0.000650917911	0
    CmRoll:	-7.653157923e-06	-6.924569259e-06	-7.285886632e-07	0
    CmYaw:	-3.253953647e-05	-3.16198481e-05	-9.196883765e-07	0
    Cs:	5.550379666e-08	5.521393775e-08	2.898589067e-10	0
    Cs(f):	-3.251178457e-05	-3.159224113e-05	-9.195434471e-07	0
    Cs(r):	3.256728837e-05	3.164745506e-05	9.19833306e-07	0

    writing force and moment coefficient files.

Courant Number mean: 0.06517568366 max: 0.8918855775
deltaT = 0.0007061435138
Time = 0.0108486473393

PIMPLE: iteration 1
DILUPBiCGStab:  Solving for Ux, Initial residual = 0.0005856493907, Final residual = 6.406787005e-11, No Iterations 3
DILUPBiCGStab:  Solving for Uy, Initial residual = 0.00434177509, Final residual = 5.799445791e-10, No Iterations 3
GAMG:  Solving for p, Initial residual = 0.01317974299, Final residual = 0.0001068819197, No Iterations 4
GAMG:  Solving for p, Initial residual = 0.003708539659, Final residual = 1.847101452e-05, No Iterations 5
time step continuity errors : sum local = 2.988372928e-09, global = 1.33180854e-11, cumulative = 2.07721251e-10
GAMG:  Solving for p, Initial residual = 0.00250760092, Final residual = 1.782373269e-05, No Iterations 5
GAMG:  Solving for p, Initial residual = 0.0007951417945, Final residual = 8.175842937e-09, No Iterations 20
time step continuity errors : sum local = 1.319900258e-12, global = -9.569036904e-14, cumulative = 2.076255606e-10
ExecutionTime = 5 s  ClockTime = 6 s

forceCoeffs forceCoeffs write:
    Coefficient	Total	Pressure	Viscous	Internal
    Cd:	3.317148352	2.237507456	1.079640897	0
    Cd(f):	1.658565961	1.118746337	0.5398196239	0
    Cd(r):	1.658582391	1.118761118	0.5398212727	0
    Cl:	-0.01061818617	-0.01010949334	-0.0005086928322	0
    Cl(f):	-0.005937195506	-0.005054746671	-0.0008824488351	0
    Cl(r):	-0.004680990668	-0.005054746671	0.0003737560029	0
    CmPitch:	-0.000628102419	-1.46190938e-14	-0.000628102419	0
    CmRoll:	-8.214910223e-06	-7.390536851e-06	-8.243733721e-07	0
    CmYaw:	-3.037320801e-05	-2.95287717e-05	-8.444363039e-07	0
    Cs:	5.379749058e-08	5.351448814e-08	2.830024407e-10	0
    Cs(f):	-3.034630926e-05	-2.950201446e-05	-8.442948027e-07	0
    Cs(r):	3.040010675e-05	2.955552895e-05	8.445778051e-07	0

    writing force and moment coefficient files.

Courant Number mean: 0.06576502416 max: 0.8919500731
deltaT = 0.0007125165204
Time = 0.0115611638597

PIMPLE: iteration 1
DILUPBiCGStab:  Solving for Ux, Initial residual = 0.0005675723978, Final residual = 6.0980551e-11, No Iterations 3
DILUPBiCGStab:  Solving for Uy, Initial residual = 0.004199992954, Final residual = 5.551356503e-10, No Iterations 3
GAMG:  Solving for p, Initial residual = 0.01339396886, Final residual = 0.0001038641548, No Iterations 4
GAMG:  Solving for p, Initial residual = 0.00345063876, Final residual = 1.69512857e-05, No Iterations 5
time step continuity errors : sum local = 2.771645427e-09, global = 1.19273162e-11, cumulative = 2.195528768e-10
GAMG:  Solving for p, Initial residual = 0.002341745515, Final residual = 1.663827145e-05, No Iterations 5
GAMG:  Solving for p, Initial residual = 0.0007344701519, Final residual = 7.66105674e-09, No Iterations 20
time step continuity errors : sum local = 1.250116361e-12, global = -9.124542354e-14, cumulative = 2.194616314e-10
ExecutionTime = 5.2 s  ClockTime = 6 s

forceCoeffs forceCoeffs write:
    Coefficient	Total	Pressure	Viscous	Internal
    Cd:	3.250660594	2.1978611	1.052799495	0
    Cd(f):	1.625321785	1.098922927	0.5263988586	0
    Cd(r):	1.625338809	1.098938173	0.5264006361	0
    Cl:	-0.01055992995	-0.0100369406	-0.0005229893586	0
    Cl(f):	-0.005886973709	-0.005018470298	-0.0008685034115	0
    Cl(r):	-0.004672956245	-0.005018470298	0.0003455140529	0
    CmPitch:	-0.0006070087322	-1.244191119e-14	-0.0006070087322	0
    CmRoll:	-8.511868957e-06	-7.623112102e-06	-8.887568548e-07	0
    CmYaw:	-3.074881858e-05	-2.993933303e-05	-8.094855463e-07	0
    Cs:	5.220718441e-08	5.19725384e-08	2.346460106e-10	0
    Cs(f):	-3.072271499e-05	-2.991334676e-05	-8.093682233e-07	0
    Cs(r):	3.077492217e-05	2.99653193e-05	8.096028693e-07	0

    writing force and moment coefficient files.

Courant Number mean: 0.06635525162 max: 0.892065266
deltaT = 0.0007188542058
Time = 0.0122800180655

PIMPLE: iteration 1
DILUPBiCGStab:  Solving for Ux, Initial residual = 0.0005504774856, Final residual = 5.820899237e-11, No Iterations 3
DILUPBiCGStab:  Solving for Uy, Initial residual = 0.004085455704, Final residual = 5.338240228e-10, No Iterations 3
GAMG:  Solving for p, Initial residual = 0.01333702459, Final residual = 9.93496634e-05, No Iterations 4
GAMG:  Solving for p, Initial residual = 0.003197689296, Final residual = 1.556558699e-05, No Iterations 5
time step continuity errors : sum local = 2.574494888e-09, global = 1.070061299e-11, cumulative = 2.301622444e-10
GAMG:  Solving for p, Initial residual = 0.002202918161, Final residual = 1.55084081e-05, No Iterations 5
GAMG:  Solving for p, Initial residual = 0.000679302627, Final residual = 9.498297641e-09, No Iterations 19
time step continuity errors : sum local = 1.568069209e-12, global = -1.099021799e-13, cumulative = 2.300523422e-10
ExecutionTime = 5.38 s  ClockTime = 6 s

forceCoeffs forceCoeffs write:
    Coefficient	Total	Pressure	Viscous	Internal
    Cd:	3.190326921	2.162269339	1.028057582	0
    Cd(f):	1.595154542	1.081126679	0.5140278626	0
    Cd(r):	1.59517238	1.08114266	0.5140297199	0
    Cl:	-0.01051465186	-0.009978311065	-0.0005363407925	0
    Cl(f):	-0.005844737041	-0.004989155532	-0.0008555815089	0
    Cl(r):	-0.004669914816	-0.004989155532	0.0003192407164	0
    CmPitch:	-0.0005874111126	-1.33902108e-14	-0.0005874111126	0
    CmRoll:	-8.918969904e-06	-7.99033778e-06	-9.286321239e-07	0
    CmYaw:	-3.182008242e-05	-3.099207855e-05	-8.280038764e-07	0
    Cs:	5.078548442e-08	5.056682555e-08	2.18658866e-10	0
    Cs(f):	-3.179468968e-05	-3.096679513e-05	-8.278945469e-07	0
    Cs(r):	3.184547517e-05	3.101736196e-05	8.281132058e-07	0

    writing force and moment coefficient files.

Courant Number mean: 0.06694245127 max: 0.8922265694
deltaT = 0.0007251171479
Time = 0.0130051352134

PIMPLE: iteration 1
DILUPBiCGStab:  Solving for Ux, Initial residual = 0.0005352744178, Final residual = 5.56960357e-11, No Iterations 3
DILUPBiCGStab:  Solving for Uy, Initial residual = 0.003989584908, Final residual = 5.155629719e-10, No Iterations 3
GAMG:  Solving for p, Initial residual = 0.01388251835, Final residual = 9.538543248e-05, No Iterations 4
GAMG:  Solving for p, Initial residual = 0.002985265763, Final residual = 1.442266812e-05, No Iterations 5
time step continuity errors : sum local = 2.410310372e-09, global = 9.668772993e-12, cumulative = 2.397211152e-10
GAMG:  Solving for p, Initial residual = 0.002087013493, Final residual = 1.44656223e-05, No Iterations 5
GAMG:  Solving for p, Initial residual = 0.0006313008905, Final residual = 8.956639411e-09, No Iterations 19
time step continuity errors : sum local = 1.494286235e-12, global = -1.050184338e-13, cumulative = 2.396160968e-10
ExecutionTime = 5.55 s  ClockTime = 6 s

forceCoeffs forceCoeffs write:
    Coefficient	Total	Pressure	Viscous	Internal
    Cd:	3.135232052	2.130057551	1.005174501	0
    Cd(f):	1.56760701	1.06502071	0.5025862991	0
    Cd(r):	1.567625042	1.065036841	0.5025882014	0
    Cl:	-0.01047379677	-0.009924783053	-0.0005490137201	0
    Cl(f):	-0.00580602164	-0.004962391526	-0.0008436301137	0
    Cl(r):	-0.004667775133	-0.004962391526	0.0002946163936	0
    CmPitch:	-0.0005691232537	-1.268370414e-14	-0.0005691232537	0
    CmRoll:	-9.016193484e-06	-8.065039757e-06	-9.511537263e-07	0
    CmYaw:	-3.208945391e-05	-3.12039822e-05	-8.854717071e-07	0
    Cs:	4.94783245e-08	4.92808279e-08	1.974966005e-10	0
    Cs(f):	-3.206471475e-05	-3.117934179e-05	-8.853729588e-07	0
    Cs(r):	3.211419307e-05	3.122862262e-05	8.855704554e-07	0

    writing force and moment coefficient files.

Courant Number mean: 0.06752287303 max: 0.8924339036
deltaT = 0.000731264725
Time = 0.0137363999384

PIMPLE: iteration 1
DILUPBiCGStab:  Solving for Ux, Initial residual = 0.0005211270128, Final residual = 5.340552984e-11, No Iterations 3
DILUPBiCGStab:  Solving for Uy, Initial residual = 0.003908594571, Final residual = 4.996344964e-10, No Iterations 3
GAMG:  Solving for p, Initial residual = 0.01439975346, Final residual = 9.450902428e-05, No Iterations 4
GAMG:  Solving for p, Initial residual = 0.002776551529, Final residual = 1.318749717e-05, No Iterations 5
time step continuity errors : sum local = 2.228067602e-09, global = 8.683211331e-12, cumulative = 2.482993081e-10
GAMG:  Solving for p, Initial residual = 0.001991156828, Final residual = 1.352818674e-05, No Iterations 5
GAMG:  Solving for p, Initial residual = 0.0005872127475, Final residual = 8.412342525e-09, No Iterations 19
time step continuity errors : sum local = 1.419084516e-12, global = -1.013674412e-13, cumulative = 2.481979407e-10
ExecutionTime = 5.73 s  ClockTime = 6 s

forceCoeffs forceCoeffs write:
    Coefficient	Total	Pressure	Viscous	Internal
    Cd:	3.085001484	2.101055904	0.9839455805	0
    Cd(f):	1.542491496	1.050519664	0.4919718321	0
    Cd(r):	1.542509988	1.05053624	0.4919737484	0
    Cl:	-0.01040845436	-0.009847466218	-0.0005609881426	0
    Cl(f):	-0.005756216023	-0.004923733109	-0.0008324829136	0
    Cl(r):	-0.004652238338	-0.004923733109	0.000271494771	0
    CmPitch:	-0.0005519888423	-1.251576534e-14	-0.0005519888423	0
    CmRoll:	-9.246252788e-06	-8.288097265e-06	-9.581555228e-07	0
    CmYaw:	-3.324437969e-05	-3.228003993e-05	-9.643397643e-07	0
    Cs:	4.829812043e-08	4.81068131e-08	1.913073317e-10	0
    Cs(f):	-3.322023063e-05	-3.225598652e-05	-9.642441106e-07	0
    Cs(r):	3.326852875e-05	3.230409333e-05	9.64435418e-07	0

    writing force and moment coefficient files.

Courant Number mean: 0.06809265311 max: 0.8926747963
deltaT = 0.0007372654132
Time = 0.0144736653516

PIMPLE: iteration 1
DILUPBiCGStab:  Solving for Ux, Initial residual = 0.0005085688154, Final residual = 5.131831741e-11, No Iterations 3
DILUPBiCGStab:  Solving for Uy, Initial residual = 0.003842066325, Final residual = 4.854899872e-10, No Iterations 3
GAMG:  Solving for p, Initial residual = 0.01500456482, Final residual = 9.13575231e-05, No Iterations 4
GAMG:  Solving for p, Initial residual = 0.002599562804, Final residual = 1.224946418e-05, No Iterations 5
time step continuity errors : sum local = 2.090289543e-09, global = 7.870248723e-12, cumulative = 2.560681894e-10
GAMG:  Solving for p, Initial residual = 0.00190563641, Final residual = 1.268235651e-05, No Iterations 5
GAMG:  Solving for p, Initial residual = 0.0005471321269, Final residual = 7.957772132e-09, No Iterations 19
time step continuity errors : sum local = 1.355990949e-12, global = -9.718765237e-14, cumulative = 2.559710017e-10
ExecutionTime = 5.92 s  ClockTime = 6 s

forceCoeffs forceCoeffs write:
    Coefficient	Total	Pressure	Viscous	Internal
    Cd:	3.039035123	2.074837275	0.9641978483	0
    Cd(f):	1.519508044	1.037410077	0.4820979665	0
    Cd(r):	1.51952708	1.037427198	0.4820998817	0
    Cl:	-0.01036161456	-0.009789398296	-0.0005722162605	0
    Cl(f):	-0.005716680418	-0.004894699148	-0.0008219812703	0
    Cl(r):	-0.004644934138	-0.004894699148	0.0002497650098	0
    CmPitch:	-0.0005358731401	-1.177271249e-14	-0.0005358731401	0
    CmRoll:	-9.518165491e-06	-8.560581087e-06	-9.575844048e-07	0
    CmYaw:	-3.369836507e-05	-3.263467851e-05	-1.063686566e-06	0
    Cs:	4.720576151e-08	4.702950929e-08	1.762522187e-10	0
    Cs(f):	-3.367476219e-05	-3.261116375e-05	-1.06359844e-06	0
    Cs(r):	3.372196795e-05	3.265819326e-05	1.063774692e-06	0

    writing force and moment coefficient files.

Courant Number mean: 0.06864883237 max: 0.8929425311
deltaT = 0.000743092471
Time = 0.0152167578225

PIMPLE: iteration 1
DILUPBiCGStab:  Solving for Ux, Initial residual = 0.0004964272889, Final residual = 4.937854364e-11, No Iterations 3
DILUPBiCGStab:  Solving for Uy, Initial residual = 0.003784538256, Final residual = 4.727379572e-10, No Iterations 3
GAMG:  Solving for p, Initial residual = 0.01579481886, Final residual = 9.263874418e-05, No Iterations 4
GAMG:  Solving for p, Initial residual = 0.002425347067, Final residual = 1.121906019e-05, No Iterations 5
time step continuity errors : sum local = 1.934623288e-09, global = 6.972751904e-12, cumulative = 2.629437536e-10
GAMG:  Solving for p, Initial residual = 0.0018350263, Final residual = 1.189838886e-05, No Iterations 5
GAMG:  Solving for p, Initial residual = 0.0005098211894, Final residual = 9.965490179e-09, No Iterations 18
time step continuity errors : sum local = 1.716171921e-12, global = -1.184340704e-13, cumulative = 2.628253196e-10
ExecutionTime = 6.09 s  ClockTime = 7 s

forceCoeffs forceCoeffs write:
    Coefficient	Total	Pressure	Viscous	Internal
    Cd:	2.996999089	2.051217066	0.9457820235	0
    Cd(f):	1.498490111	1.025600049	0.4728900622	0
    Cd(r):	1.498508978	1.025617017	0.4728919613	0
    Cl:	-0.01031377162	-0.009730838694	-0.0005829329262	0
    Cl(f):	-0.005677550222	-0.004865419347	-0.0008121308753	0
    Cl(r):	-0.004636221398	-0.004865419347	0.0002291979491	0
    CmPitch:	-0.0005206644122	-1.217166655e-14	-0.0005206644122	0
    CmRoll:	-9.433252197e-06	-8.483706844e-06	-9.495453533e-07	0
    CmYaw:	-3.447877434e-05	-3.330515587e-05	-1.173618462e-06	0
    Cs:	4.620761592e-08	4.60404055e-08	1.672104108e-10	0
    Cs(f):	-3.445567053e-05	-3.328213567e-05	-1.173534857e-06	0
    Cs(r):	3.450187814e-05	3.332817608e-05	1.173702068e-06	0

    writing force and moment coefficient files.

Courant Number mean: 0.06918891014 max: 0.8932260845
deltaT = 0.0007487278254
Time = 0.015965485648

PIMPLE: iteration 1
DILUPBiCGStab:  Solving for Ux, Initial residual = 0.0004853267385, Final residual = 9.53531301e-10, No Iterations 2
DILUPBiCGStab:  Solving for Uy, Initial residual = 0.003738064473, Final residual = 4.609685605e-10, No Iterations 3
GAMG:  Solving for p, Initial residual = 0.01655319668, Final residual = 8.833251612e-05, No Iterations 4
GAMG:  Solving for p, Initial residual = 0.002274784017, Final residual = 1.052937684e-05, No Iterations 5
time step continuity errors : sum local = 1.832632465e-09, global = 6.286885566e-12, cumulative = 2.691122051e-10
GAMG:  Solving for p, Initial residual = 0.001774640169, Final residual = 1.117888814e-05, No Iterations 5
GAMG:  Solving for p, Initial residual = 0.0004758405197, Final residual = 9.438933145e-09, No Iterations 18
time step continuity errors : sum local = 1.640807801e-12, global = -1.137226116e-13, cumulative = 2.689984825e-10
ExecutionTime = 6.26 s  ClockTime = 7 s

forceCoeffs forceCoeffs write:
    Coefficient	Total	Pressure	Viscous	Internal
    Cd:	2.958463807	2.029893879	0.9285699282	0
    Cd(f):	1.479222229	1.014938198	0.4642840306	0
    Cd(r):	1.479241578	1.01495568	0.4642858976	0
    Cl:	-0.01026686704	-0.009673673834	-0.0005931932051	0
    Cl(f):	-0.005639662986	-0.004836836917	-0.0008028260685	0
    Cl(r):	-0.004627204054	-0.004836836917	0.0002096328634	0
    CmPitch:	-0.000506229466	-1.225675986e-14	-0.000506229466	0
    CmRoll:	-9.674489191e-06	-8.740954994e-06	-9.335341963e-07	0
    CmYaw:	-3.497497058e-05	-3.367934768e-05	-1.295622899e-06	0
    Cs:	4.528274936e-08	4.512854401e-08	1.542053443e-10	0
    Cs(f):	-3.495232921e-05	-3.365678341e-05	-1.295545796e-06	0
    Cs(r):	3.499761196e-05	3.370191196e-05	1.295700002e-06	0

    writing force and moment coefficient files.

Courant Number mean: 0.06971114539 max: 0.8935169446
deltaT = 0.0007541603401
Time = 0.0167196459881

PIMPLE: iteration 1
DILUPBiCGStab:  Solving for Ux, Initial residual = 0.0004746853469, Final residual = 9.064464182e-10, No Iterations 2
DILUPBiCGStab:  Solving for Uy, Initial residual = 0.003692675018, Final residual = 4.507145207e-10, No Iterations 3
GAMG:  Solving for p, Initial residual = 0.01741418341, Final residual = 8.97084567e-05, No Iterations 4
GAMG:  Solving for p, Initial residual = 0.002125494138, Final residual = 9.659423252e-06, No Iterations 5
time step continuity errors : sum local = 1.697249381e-09, global = 5.497788074e-12, cumulative = 2.744962706e-10
GAMG:  Solving for p, Initial residual = 0.001722288364, Final residual = 1.052281199e-05, No Iterations 5
GAMG:  Solving for p, Initial residual = 0.0004435818818, Final residual = 8.930094813e-09, No Iterations 18
time step continuity errors : sum local = 1.567315682e-12, global = -1.105402956e-13, cumulative = 2.743857303e-10
ExecutionTime = 6.43 s  ClockTime = 7 s

forceCoeffs forceCoeffs write:
    Coefficient	Total	Pressure	Viscous	Internal
    Cd:	2.923167616	2.01071868	0.912448936	0
    Cd(f):	1.461574634	1.00535108	0.4562235539	0
    Cd(r):	1.461592982	1.0053676	0.456225382	0
    Cl:	-0.01020728264	-0.009604366244	-0.0006029163942	0
    Cl(f):	-0.005596175503	-0.004802183122	-0.0007939923814	0
    Cl(r):	-0.004611107135	-0.004802183122	0.0001910759871	0
    CmPitch:	-0.0004925341843	-1.255711938e-14	-0.0004925341843	0
    CmRoll:	-9.174321983e-06	-8.260257063e-06	-9.140649209e-07	0
    CmYaw:	-3.610208275e-05	-3.467758801e-05	-1.424494733e-06	0
    Cs:	4.443164739e-08	4.428791661e-08	1.437307892e-10	0
    Cs(f):	-3.607986692e-05	-3.465544406e-05	-1.424422867e-06	0
    Cs(r):	3.612429857e-05	3.469973197e-05	1.424566598e-06	0

    writing force and moment coefficient files.

Courant Number mean: 0.07021453869 max: 0.8938071604
deltaT = 0.0007593856217
Time = 0.0174790316098

PIMPLE: iteration 1
DILUPBiCGStab:  Solving for Ux, Initial residual = 0.0004646862983, Final residual = 8.653968115e-10, No Iterations 2
DILUPBiCGStab:  Solving for Uy, Initial residual = 0.003658979456, Final residual = 4.411802237e-10, No Iterations 3
GAMG:  Solving for p, Initial residual = 0.01803221195, Final residual = 8.527897736e-05, No Iterations 4
GAMG:  Solving for p, Initial residual = 0.002001300103, Final residual = 9.142042168e-06, No Iterations 5
time step continuity errors : sum local = 1.6198609e-09, global = 4.941326174e-12, cumulative = 2.793270565e-10
GAMG:  Solving for p, Initial residual = 0.001674494381, Final residual = 9.908309934e-06, No Iterations 5
GAMG:  Solving for p, Initial residual = 0.000415352661, Final residual = 8.462843767e-09, No Iterations 18
time step continuity errors : sum local = 1.497903801e-12, global = -1.062715022e-13, cumulative = 2.79220785e-10
ExecutionTime = 6.61 s  ClockTime = 7 s

forceCoeffs forceCoeffs write:
    Coefficient	Total	Pressure	Viscous	Internal
    Cd:	2.89077993	1.993458703	0.897321227	0
    Cd(f):	1.445380331	0.9967206072	0.4486597236	0
    Cd(r):	1.445399599	0.9967380958	0.4486615033	0
    Cl:	-0.01017002637	-0.009557869464	-0.0006121569041	0
    Cl(f):	-0.005564522177	-0.004778934732	-0.000785587445	0
    Cl(r):	-0.004605504191	-0.004778934732	0.0001734305409	0
    CmPitch:	-0.000479508993	-1.301864214e-14	-0.000479508993	0
    CmRoll:	-9.63411032e-06	-8.744272193e-06	-8.898381271e-07	0
    CmYaw:	-3.657140438e-05	-3.50096201e-05	-1.561784278e-06	0
    Cs:	4.36415175e-08	4.35082387e-08	1.332787969e-10	0
    Cs(f):	-3.654958362e-05	-3.498786598e-05	-1.561717639e-06	0
    Cs(r):	3.659322514e-05	3.503137422e-05	1.561850918e-06	0

    writing force and moment coefficient files.

Courant Number mean: 0.07069863502 max: 0.8940914925
deltaT = 0.0007644039399
Time = 0.0182434355496

PIMPLE: iteration 1
DILUPBiCGStab:  Solving for Ux, Initial residual = 0.0004551773763, Final residual = 8.31850199e-10, No Iterations 2
DILUPBiCGStab:  Solving for Uy, Initial residual = 0.003622150112, Final residual = 4.318018516e-10, No Iterations 3
GAMG:  Solving for p, Initial residual = 0.01877503154, Final residual = 0.0001798850797, No Iterations 3
GAMG:  Solving for p, Initial residual = 0.001494760483, Final residual = 8.782888813e-06, No Iterations 5
time step continuity errors : sum local = 1.570576672e-09, global = -5.430804209e-12, cumulative = 2.737899808e-10
GAMG:  Solving for p, Initial residual = 0.001798576595, Final residual = 1.01966374e-05, No Iterations 5
GAMG:  Solving for p, Initial residual = 0.0004561404753, Final residual = 9.153644524e-09, No Iterations 18
time step continuity errors : sum local = 1.63443351e-12, global = -1.15624437e-13, cumulative = 2.736743563e-10
ExecutionTime = 6.77 s  ClockTime = 7 s

forceCoeffs forceCoeffs write:
    Coefficient	Total	Pressure	Viscous	Internal
    Cd:	2.861128454	1.978028135	0.8831003196	0
    Cd(f):	1.430555385	0.9890060911	0.4415492939	0
    Cd(r):	1.430573069	0.9890220436	0.4415510257	0
    Cl:	-0.01010295426	-0.009481988706	-0.0006209655509	0
    Cl(f):	-0.005518558962	-0.004740994353	-0.0007775646091	0
    Cl(r):	-0.004584395295	-0.004740994353	0.0001565990582	0
    CmPitch:	-0.0004670818336	-1.357311498e-14	-0.0004670818336	0
    CmRoll:	-8.842139467e-06	-7.97623027e-06	-8.659091965e-07	0
    CmYaw:	-3.764812347e-05	-3.595285081e-05	-1.69527266e-06	0
    Cs:	4.292195017e-08	4.278917433e-08	1.327758387e-10	0
    Cs(f):	-3.762666249e-05	-3.593145622e-05	-1.695206272e-06	0
    Cs(r):	3.766958444e-05	3.597424539e-05	1.695339048e-06	0

    writing force and moment coefficient files.

Courant Number mean: 0.07116351879 max: 0.8943645632
deltaT = 0.0007692204882
Time = 0.0190126560378

PIMPLE: iteration 1
DILUPBiCGStab:  Solving for Ux, Initial residual = 0.000446395376, Final residual = 8.14602527e-10, No Iterations 2
DILUPBiCGStab:  Solving for Uy, Initial residual = 0.003598706748, Final residual = 4.224373296e-10, No Iterations 3
GAMG:  Solving for p, Initial residual = 0.01939364367, Final residual = 0.0001739570339, No Iterations 3
GAMG:  Solving for p, Initial residual = 0.001376111644, Final residual = 8.004357838e-06, No Iterations 5
time step continuity errors : sum local = 1.442107996e-09, global = -7.475819525e-12, cumulative = 2.661985368e-10
GAMG:  Solving for p, Initial residual = 0.001811451814, Final residual = 9.70523335e-06, No Iterations 5
GAMG:  Solving for p, Initial residual = 0.0004364280377, Final residual = 8.195600669e-09, No Iterations 18
time step continuity errors : sum local = 1.47440979e-12, global = -9.966634031e-14, cumulative = 2.660988705e-10
ExecutionTime = 6.97 s  ClockTime = 8 s

forceCoeffs forceCoeffs write:
    Coefficient	Total	Pressure	Viscous	Internal
    Cd:	2.83389815	1.964187315	0.8697108351	0
    Cd(f):	1.416938859	0.9820842811	0.4348545782	0
    Cd(r):	1.41695929	0.9821030334	0.4348562569	0
    Cl:	-0.01004993622	-0.009420742998	-0.0006291932188	0
    Cl(f):	-0.005480158943	-0.004710371499	-0.0007697874439	0
    Cl(r):	-0.004569777274	-0.004710371499	0.0001405942251	0
    CmPitch:	-0.0004551908345	-1.405322889e-14	-0.0004551908345	0
    CmRoll:	-1.02155226e-05	-9.376160939e-06	-8.393616601e-07	0
    CmYaw:	-3.816736758e-05	-3.633306029e-05	-1.834307296e-06	0
    Cs:	4.224960165e-08	4.2127165e-08	1.224366571e-10	0
    Cs(f):	-3.814624278e-05	-3.63119967e-05	-1.834246078e-06	0
    Cs(r):	3.818849238e-05	3.635412387e-05	1.834368515e-06	0

    writing force and moment coefficient files.

Courant Number mean: 0.07160964833 max: 0.8946225929
deltaT = 0.0007738441269
Time = 0.0197865001648

PIMPLE: iteration 1
DILUPBiCGStab:  Solving for Ux, Initial residual = 0.0004379950932, Final residual = 8.032156804e-10, No Iterations 2
DILUPBiCGStab:  Solving for Uy, Initial residual = 0.003571735202, Final residual = 4.134085072e-10, No Iterations 3
GAMG:  Solving for p, Initial residual = 0.01998733934, Final residual = 0.0001689781114, No Iterations 3
GAMG:  Solving for p, Initial residual = 0.001268709105, Final residual = 7.754423388e-06, No Iterations 5
time step continuity errors : sum local = 1.408272711e-09, global = -7.617596272e-12, cumulative = 2.584812742e-10
GAMG:  Solving for p, Initial residual = 0.001763465952, Final residual = 9.206917881e-06, No Iterations 5
GAMG:  Solving for p, Initial residual = 0.0004099207419, Final residual = 7.968793282e-09, No Iterations 18
time step continuity errors : sum local = 1.445202214e-12, global = -1.001969068e-13, cumulative = 2.583810773e-10
ExecutionTime = 7.15 s  ClockTime = 8 s

forceCoeffs forceCoeffs write:
    Coefficient	Total	Pressure	Viscous	Internal
    Cd:	2.809022009	1.951936872	0.8570851375	0
    Cd(f):	1.40450186	0.975960115	0.4285417453	0
    Cd(r):	1.404520149	0.975976757	0.4285433922	0
    Cl:	-0.009985777707	-0.009348798321	-0.0006369793868	0
    Cl(f):	-0.005436675077	-0.00467439916	-0.0007622759167	0
    Cl(r):	-0.00454910263	-0.00467439916	0.0001252965299	0
    CmPitch:	-0.0004437862233	-1.41156577e-14	-0.0004437862233	0
    CmRoll:	-9.144442671e-06	-8.32097228e-06	-8.23470391e-07	0
    CmYaw:	-3.859895612e-05	-3.662798242e-05	-1.970973694e-06	0
    Cs:	4.162914337e-08	4.150852007e-08	1.206232927e-10	0
    Cs(f):	-3.857814155e-05	-3.660722816e-05	-1.970913382e-06	0
    Cs(r):	3.861977069e-05	3.664873668e-05	1.971034006e-06	0

    writing force and moment coefficient files.

Courant Number mean: 0.0720379633 max: 0.8948692605
deltaT = 0.000778280968
Time = 0.0205647811327

PIMPLE: iteration 1
DILUPBiCGStab:  Solving for Ux, Initial residual = 0.0004301164285, Final residual = 7.954858182e-10, No Iterations 2
DILUPBiCGStab:  Solving for Uy, Initial residual = 0.003556488097, Final residual = 4.046905627e-10, No Iterations 3
GAMG:  Solving for p, Initial residual = 0.02045043767, Final residual = 0.0001635507072, No Iterations 3
GAMG:  Solving for p, Initial residual = 0.001186239644, Final residual = 7.123222474e-06, No Iterations 5
time step continuity errors : sum local = 1.302873393e-09, global = -8.25297914e-12, cumulative = 2.501280982e-10
GAMG:  Solving for p, Initial residual = 0.001755542879, Final residual = 8.869472652e-06, No Iterations 5
GAMG:  Solving for p, Initial residual = 0.0003922762052, Final residual = 7.608194422e-09, No Iterations 18
time step continuity errors : sum local = 1.389706626e-12, global = -9.572197338e-14, cumulative = 2.500323762e-10
ExecutionTime = 7.33 s  ClockTime = 8 s

forceCoeffs forceCoeffs write:
    Coefficient	Total	Pressure	Viscous	Internal
    Cd:	2.786132913	1.940969456	0.8451634562	0
    Cd(f):	1.393057177	0.9704762438	0.4225809332	0
    Cd(r):	1.393075736	0.9704932126	0.422582523	0
    Cl:	-0.009936445365	-0.009292112081	-0.0006443332845	0
    Cl(f):	-0.005401048027	-0.00464605604	-0.0007549919865	0
    Cl(r):	-0.004535397338	-0.00464605604	0.000110658702	0
    CmPitch:	-0.0004328253443	-1.491471724e-14	-0.0004328253443	0
    CmRoll:	-9.279319393e-06	-8.484416531e-06	-7.949028625e-07	0
    CmYaw:	-3.876710597e-05	-3.666327183e-05	-2.103834145e-06	0
    Cs:	4.104653411e-08	4.093299685e-08	1.135372573e-10	0
    Cs(f):	-3.874658271e-05	-3.664280533e-05	-2.103777376e-06	0
    Cs(r):	3.878762924e-05	3.668373833e-05	2.103890913e-06	0

    writing force and moment coefficient files.

Courant Number mean: 0.07244897976 max: 0.8951017066
deltaT = 0.0007825399796
Time = 0.0213473211123

PIMPLE: iteration 1
DILUPBiCGStab:  Solving for Ux, Initial residual = 0.000422787782, Final residual = 7.893034552e-10, No Iterations 2
DILUPBiCGStab:  Solving for Uy, Initial residual = 0.003531187107, Final residual = 3.962664329e-10, No Iterations 3
GAMG:  Solving for p, Initial residual = 0.02097609603, Final residual = 0.0001596603841, No Iterations 3
GAMG:  Solving for p, Initial residual = 0.001101651448, Final residual = 6.98005808e-06, No Iterations 5
time step continuity errors : sum local = 1.28612246e-09, global = -8.111406893e-12, cumulative = 2.419209693e-10
GAMG:  Solving for p, Initial residual = 0.001743221522, Final residual = 8.627837011e-06, No Iterations 5
GAMG:  Solving for p, Initial residual = 0.0003727666648, Final residual = 7.484800466e-09, No Iterations 18
time step continuity errors : sum local = 1.377349012e-12, global = -9.500050104e-14, cumulative = 2.418259688e-10
ExecutionTime = 7.52 s  ClockTime = 8 s

forceCoeffs forceCoeffs write:
    Coefficient	Total	Pressure	Viscous	Internal
    Cd:	2.765209587	1.931318456	0.8338911307	0
    Cd(f):	1.382595872	0.9656510737	0.4169447979	0
    Cd(r):	1.382613715	0.9656673821	0.4169463328	0
    Cl:	-0.009866176058	-0.009214856334	-0.0006513197241	0
    Cl(f):	-0.005355359787	-0.004607428167	-0.0007479316205	0
    Cl(r):	-0.00451081627	-0.004607428167	9.661189635e-05	0
    CmPitch:	-0.0004222717584	-1.41486578e-14	-0.0004222717584	0
    CmRoll:	-8.921643125e-06	-8.154191539e-06	-7.674515858e-07	0
    CmYaw:	-3.895338632e-05	-3.672204757e-05	-2.231338753e-06	0
    Cs:	4.050449183e-08	4.040028761e-08	1.042042175e-10	0
    Cs(f):	-3.893313408e-05	-3.670184743e-05	-2.231286651e-06	0
    Cs(r):	3.897363857e-05	3.674224772e-05	2.231390855e-06	0

    writing force and moment coefficient files.

Courant Number mean: 0.07284355994 max: 0.8953206889
deltaT = 0.0007866298527
Time = 0.022133950965

PIMPLE: iteration 1
DILUPBiCGStab:  Solving for Ux, Initial residual = 0.0004157736672, Final residual = 7.832650365e-10, No Iterations 2
DILUPBiCGStab:  Solving for Uy, Initial residual = 0.003522608118, Final residual = 3.890403149e-10, No Iterations 3
GAMG:  Solving for p, Initial residual = 0.02143783605, Final residual = 0.0001587649766, No Iterations 3
GAMG:  Solving for p, Initial residual = 0.001032806218, Final residual = 6.489708886e-06, No Iterations 5
time step continuity errors : sum local = 1.203522135e-09, global = -7.92884029e-12, cumulative = 2.338971285e-10
GAMG:  Solving for p, Initial residual = 0.001736307197, Final residual = 8.328696799e-06, No Iterations 5
GAMG:  Solving for p, Initial residual = 0.0003580610687, Final residual = 9.774274561e-09, No Iterations 17
time step continuity errors : sum local = 1.810411212e-12, global = -1.212024675e-13, cumulative = 2.33775926e-10
ExecutionTime = 7.72 s  ClockTime = 8 s

forceCoeffs forceCoeffs write:
    Coefficient	Total	Pressure	Viscous	Internal
    Cd:	2.746178707	1.922957768	0.8232209392	0
    Cd(f):	1.373080428	0.9614706964	0.4116097316	0
    Cd(r):	1.373098279	0.9614870712	0.4116112076	0
    Cl:	-0.009844027932	-0.009186022164	-0.0006580057679	0
    Cl(f):	-0.005334109449	-0.004593011082	-0.0007410983669	0
    Cl(r):	-0.004509918483	-0.004593011082	8.309259906e-05	0
    CmPitch:	-0.000412095483	-1.567246161e-14	-0.000412095483	0
    CmRoll:	-8.925355773e-06	-8.18739693e-06	-7.379588429e-07	0
    CmYaw:	-3.911481401e-05	-3.676089258e-05	-2.353921427e-06	0
    Cs:	4.000556251e-08	3.990584832e-08	9.971418432e-11	0
    Cs(f):	-3.909481123e-05	-3.674093966e-05	-2.35387157e-06	0
    Cs(r):	3.913481679e-05	3.678084551e-05	2.353971284e-06	0

    writing force and moment coefficient files.

Courant Number mean: 0.07322251755 max: 0.8955282619
deltaT = 0.0007905578166
Time = 0.0229245087816

PIMPLE: iteration 1
DILUPBiCGStab:  Solving for Ux, Initial residual = 0.0004094240558, Final residual = 7.769212066e-10, No Iterations 2
DILUPBiCGStab:  Solving for Uy, Initial residual = 0.003507019053, Final residual = 3.835236291e-10, No Iterations 3
GAMG:  Solving for p, Initial residual = 0.0219233834, Final residual = 0.0001533166436, No Iterations 3
GAMG:  Solving for p, Initial residual = 0.0009689323709, Final residual = 6.473292372e-06, No Iterations 5
time step continuity errors : sum local = 1.208418947e-09, global = -7.455939339e-12, cumulative = 2.263199867e-10
GAMG:  Solving for p, Initial residual = 0.001702246851, Final residual = 1.655803884e-05, No Iterations 4
GAMG:  Solving for p, Initial residual = 0.0003122940814, Final residual = 9.062300677e-09, No Iterations 18
time step continuity errors : sum local = 1.689669062e-12, global = -1.064162794e-13, cumulative = 2.262135704e-10
ExecutionTime = 7.91 s  ClockTime = 8 s

forceCoeffs forceCoeffs write:
    Coefficient	Total	Pressure	Viscous	Internal
    Cd:	2.728894524	1.915783799	0.8131107244	0
    Cd(f):	1.364438684	0.9578840316	0.4065546523	0
    Cd(r):	1.36445584	0.9578997677	0.4065560721	0
    Cl:	-0.009691308253	-0.009027123634	-0.000664184619	0
    Cl(f):	-0.005247927362	-0.004513561817	-0.0007343655448	0
    Cl(r):	-0.004443380891	-0.004513561817	7.018092574e-05	0
    CmPitch:	-0.0004022732353	-1.450645982e-14	-0.0004022732353	0
    CmRoll:	-8.577942162e-06	-7.868047482e-06	-7.098946801e-07	0
    CmYaw:	-3.926824403e-05	-3.679753734e-05	-2.470706691e-06	0
    Cs:	3.952976256e-08	3.944242922e-08	8.733334477e-11	0
    Cs(f):	-3.924847914e-05	-3.677781612e-05	-2.470663024e-06	0
    Cs(r):	3.928800891e-05	3.681725855e-05	2.470750358e-06	0

    writing force and moment coefficient files.

Courant Number mean: 0.07358656713 max: 0.8957291919
deltaT = 0.000794327171
Time = 0.0237188359526

PIMPLE: iteration 1
DILUPBiCGStab:  Solving for Ux, Initial residual = 0.0004032044106, Final residual = 7.702901532e-10, No Iterations 2
DILUPBiCGStab:  Solving for Uy, Initial residual = 0.003506865879, Final residual = 3.809997438e-10, No Iterations 3
GAMG:  Solving for p, Initial residual = 0.02226239338, Final residual = 0.0001533216497, No Iterations 3
GAMG:  Solving for p, Initial residual = 0.0009276651241, Final residual = 6.143385829e-06, No Iterations 5
time step continuity errors : sum local = 1.15336672e-09, global = -7.207798215e-12, cumulative = 2.190057722e-10
GAMG:  Solving for p, Initial residual = 0.001669877839, Final residual = 1.582923229e-05, No Iterations 4
GAMG:  Solving for p, Initial residual = 0.0002959772266, Final residual = 8.663594474e-09, No Iterations 18
time step continuity errors : sum local = 1.624690454e-12, global = -9.91414977e-14, cumulative = 2.189066307e-10
ExecutionTime = 8.1 s  ClockTime = 9 s

forceCoeffs forceCoeffs write:
    Coefficient	Total	Pressure	Viscous	Internal
    Cd:	2.71331608	1.909793787	0.8035222923	0
    Cd(f):	1.356649244	0.9548887799	0.4017604644	0
    Cd(r):	1.356666835	0.9549050076	0.4017618279	0
    Cl:	-0.009720424521	-0.00905080108	-0.0006696234415	0
    Cl(f):	-0.005252982379	-0.00452540054	-0.0007275818394	0
    Cl(r):	-0.004467442142	-0.00452540054	5.795839792e-05	0
    CmPitch:	-0.0003927701187	-1.621243777e-14	-0.0003927701187	0
    CmRoll:	-8.795600921e-06	-8.113820304e-06	-6.817806172e-07	0
    CmYaw:	-4.005834232e-05	-3.747126484e-05	-2.587077476e-06	0
    Cs:	3.910022296e-08	3.901335436e-08	8.686860144e-11	0
    Cs(f):	-4.003879221e-05	-3.745175817e-05	-2.587034042e-06	0
    Cs(r):	4.007789243e-05	3.749077152e-05	2.587120911e-06	0

    writing force and moment coefficient files.

Courant Number mean: 0.07393592678 max: 0.895920664
deltaT = 0.0007979439281
Time = 0.0245167798806

PIMPLE: iteration 1
DILUPBiCGStab:  Solving for Ux, Initial residual = 0.0003976529133, Final residual = 7.631786971e-10, No Iterations 2
DILUPBiCGStab:  Solving for Uy, Initial residual = 0.003494526802, Final residual = 3.794514977e-10, No Iterations 3
GAMG:  Solving for p, Initial residual = 0.02271874533, Final residual = 0.0001493167434, No Iterations 3
GAMG:  Solving for p, Initial residual = 0.0008915087609, Final residual = 6.160426068e-06, No Iterations 5
time step continuity errors : sum local = 1.163587609e-09, global = -6.812414694e-12, cumulative = 2.12094216e-10
GAMG:  Solving for p, Initial residual = 0.001645521656, Final residual = 1.478271201e-05, No Iterations 4
GAMG:  Solving for p, Initial residual = 0.0002791568633, Final residual = 8.05366011e-09, No Iterations 18
time step continuity errors : sum local = 1.519569443e-12, global = -9.204263478e-14, cumulative = 2.120021734e-10
ExecutionTime = 8.28 s  ClockTime = 9 s

forceCoeffs forceCoeffs write:
    Coefficient	Total	Pressure	Viscous	Internal
    Cd:	2.6990553	1.904634976	0.7944203239	0
    Cd(f):	1.349518966	0.9523094609	0.3972095047	0
    Cd(r):	1.349536335	0.9523255153	0.3972108192	0
    Cl:	-0.009649732255	-0.008974084891	-0.0006756473636	0
    Cl(f):	-0.005208442718	-0.004487042446	-0.0007214002724	0
    Cl(r):	-0.004441289537	-0.004487042446	4.575290881e-05	0
    CmPitch:	-0.0003835765906	-1.539193441e-14	-0.0003835765906	0
    CmRoll:	-8.68447485e-06	-8.027182077e-06	-6.572927727e-07	0
    CmYaw:	-3.97726171e-05	-3.707004399e-05	-2.702573103e-06	0
    Cs:	3.868895266e-08	3.860917729e-08	7.977537367e-11	0
    Cs(f):	-3.975327262e-05	-3.705073941e-05	-2.702533215e-06	0
    Cs(r):	3.979196157e-05	3.708934858e-05	2.70261299e-06	0

    writing force and moment coefficient files.

Courant Number mean: 0.07427116881 max: 0.8961063983
deltaT = 0.0008014110117
Time = 0.0253181908923

PIMPLE: iteration 1
DILUPBiCGStab:  Solving for Ux, Initial residual = 0.0003922140254, Final residual = 7.547780936e-10, No Iterations 2
DILUPBiCGStab:  Solving for Uy, Initial residual = 0.00349529087, Final residual = 3.790414782e-10, No Iterations 3
GAMG:  Solving for p, Initial residual = 0.02313390563, Final residual = 0.0001479978318, No Iterations 3
GAMG:  Solving for p, Initial residual = 0.0008632501805, Final residual = 5.788026647e-06, No Iterations 5
time step continuity errors : sum local = 1.098490576e-09, global = -6.195770671e-12, cumulative = 2.058064027e-10
GAMG:  Solving for p, Initial residual = 0.001613960534, Final residual = 1.412216261e-05, No Iterations 4
GAMG:  Solving for p, Initial residual = 0.0002624624002, Final residual = 7.736201066e-09, No Iterations 18
time step continuity errors : sum local = 1.466776452e-12, global = -8.455131324e-14, cumulative = 2.057218514e-10
ExecutionTime = 8.51 s  ClockTime = 9 s

forceCoeffs forceCoeffs write:
    Coefficient	Total	Pressure	Viscous	Internal
    Cd:	2.686150463	1.900379856	0.785770607	0
    Cd(f):	1.343066821	0.9501821501	0.3928846704	0
    Cd(r):	1.343083642	0.9501977058	0.3928859366	0
    Cl:	-0.009533294641	-0.008852435355	-0.000680859286	0
    Cl(f):	-0.005141308523	-0.004426217678	-0.0007150908453	0
    Cl(r):	-0.004391986118	-0.004426217678	3.423155931e-05	0
    CmPitch:	-0.0003746612023	-1.626187089e-14	-0.0003746612023	0
    CmRoll:	-8.410947009e-06	-7.777834108e-06	-6.331129007e-07	0
    CmYaw:	-4.013807199e-05	-3.7329262e-05	-2.808809989e-06	0
    Cs:	3.830940908e-08	3.82347234e-08	7.468568314e-11	0
    Cs(f):	-4.011891729e-05	-3.731014464e-05	-2.808772646e-06	0
    Cs(r):	4.01572267e-05	3.734837937e-05	2.808847331e-06	0

    writing force and moment coefficient files.

Courant Number mean: 0.07459257787 max: 0.8962860449
deltaT = 0.0008047318315
Time = 0.0261229227239

PIMPLE: iteration 1
DILUPBiCGStab:  Solving for Ux, Initial residual = 0.000387292858, Final residual = 7.457129238e-10, No Iterations 2
DILUPBiCGStab:  Solving for Uy, Initial residual = 0.003486334991, Final residual = 3.788495298e-10, No Iterations 3
GAMG:  Solving for p, Initial residual = 0.02350910793, Final residual = 0.0001482308695, No Iterations 3
GAMG:  Solving for p, Initial residual = 0.0008282860699, Final residual = 5.911451359e-06, No Iterations 5
time step continuity errors : sum local = 1.127778912e-09, global = -5.613929853e-12, cumulative = 2.001079215e-10
GAMG:  Solving for p, Initial residual = 0.001582132132, Final residual = 1.355265774e-05, No Iterations 4
GAMG:  Solving for p, Initial residual = 0.0002504372438, Final residual = 7.593036766e-09, No Iterations 18
time step continuity errors : sum local = 1.447241701e-12, global = -9.47041283e-14, cumulative = 2.000132174e-10
ExecutionTime = 8.72 s  ClockTime = 9 s

forceCoeffs forceCoeffs write:
    Coefficient	Total	Pressure	Viscous	Internal
    Cd:	2.674598051	1.897053612	0.7775444385	0
    Cd(f):	1.337288885	0.9485172822	0.3887716028	0
    Cd(r):	1.337309166	0.9485363302	0.3887728357	0
    Cl:	-0.009471660496	-0.008786425039	-0.0006852354571	0
    Cl(f):	-0.005101827602	-0.004393212519	-0.0007086150823	0
    Cl(r):	-0.004369832894	-0.004393212519	2.337962522e-05	0
    CmPitch:	-0.0003659973538	-1.536199026e-14	-0.0003659973538	0
    CmRoll:	-1.014049224e-05	-9.524024843e-06	-6.164674015e-07	0
    CmYaw:	-3.94489897e-05	-3.653945589e-05	-2.909533813e-06	0
    Cs:	3.796233737e-08	3.789015524e-08	7.218213131e-11	0
    Cs(f):	-3.943000853e-05	-3.652051081e-05	-2.909497722e-06	0
    Cs(r):	3.946797087e-05	3.655840097e-05	2.909569904e-06	0

    writing force and moment coefficient files.

Courant Number mean: 0.07490048295 max: 0.8964600765
deltaT = 0.0008079095404
Time = 0.0269308322643

PIMPLE: iteration 1
DILUPBiCGStab:  Solving for Ux, Initial residual = 0.000382575693, Final residual = 7.359106272e-10, No Iterations 2
DILUPBiCGStab:  Solving for Uy, Initial residual = 0.003489263348, Final residual = 3.798033658e-10, No Iterations 3
GAMG:  Solving for p, Initial residual = 0.02369803472, Final residual = 0.000144142464, No Iterations 3
GAMG:  Solving for p, Initial residual = 0.0008105598624, Final residual = 5.525529741e-06, No Iterations 5
time step continuity errors : sum local = 1.058943392e-09, global = -4.890057955e-12, cumulative = 1.951231594e-10
GAMG:  Solving for p, Initial residual = 0.001549779918, Final residual = 1.291094489e-05, No Iterations 4
GAMG:  Solving for p, Initial residual = 0.0002357202873, Final residual = 9.926244217e-09, No Iterations 17
time step continuity errors : sum local = 1.900649711e-12, global = -1.168317231e-13, cumulative = 1.950063277e-10
ExecutionTime = 8.88 s  ClockTime = 9 s

forceCoeffs forceCoeffs write:
    Coefficient	Total	Pressure	Viscous	Internal
    Cd:	2.664257822	1.89454182	0.7697160019	0
    Cd(f):	1.332122631	0.9472652273	0.3848574036	0
    Cd(r):	1.332135191	0.9472765929	0.3848585983	0
    Cl:	-0.009411154791	-0.008721699095	-0.0006894556962	0
    Cl(f):	-0.005063176188	-0.004360849547	-0.0007023266401	0
    Cl(r):	-0.004347978604	-0.004360849547	1.287094386e-05	0
    CmPitch:	-0.000357598792	-1.547596316e-14	-0.000357598792	0
    CmRoll:	-6.280104838e-06	-5.682782672e-06	-5.973221665e-07	0
    CmYaw:	-3.990865274e-05	-3.690982392e-05	-2.998828819e-06	0
    Cs:	3.763947929e-08	3.755699213e-08	8.248716062e-11	0
    Cs(f):	-3.9889833e-05	-3.689104543e-05	-2.998787575e-06	0
    Cs(r):	3.992747248e-05	3.692860242e-05	2.998870062e-06	0

    writing force and moment coefficient files.

Courant Number mean: 0.07519516617 max: 0.8966301465
deltaT = 0.0008109459505
Time = 0.0277417782148

PIMPLE: iteration 1
[...]
    Cd(f):	1.433952319	1.150367076	0.2835852429	0
    Cd(r):	1.433953873	1.150368375	0.2835854978	0
    Cl:	-0.0001070105199	-7.632640721e-05	-3.068411267e-05	0
    Cl(f):	-4.596142551e-05	-3.816320361e-05	-7.798221899e-06	0
    Cl(r):	-6.104909437e-05	-3.81632036e-05	-2.288589077e-05	0
    CmPitch:	7.543834432e-06	-2.743887039e-15	7.543834435e-06	0
    CmRoll:	-7.76699986e-07	-6.492185575e-07	-1.274814284e-07	0
    CmYaw:	-5.525344446e-05	-4.906789746e-05	-6.185546999e-06	0
    Cs:	5.057633089e-08	5.056288785e-08	1.344303968e-11	0
    Cs(f):	-5.522815629e-05	-4.904261601e-05	-6.185540277e-06	0
    Cs(r):	5.527873262e-05	4.90931789e-05	6.185553721e-06	0

    writing force and moment coefficient files.

Courant Number mean: 0.0855127095 max: 0.8999995295
deltaT = 0.0009110475091
Time = 1.99208513248878

PIMPLE: iteration 1
DILUPBiCGStab:  Solving for Ux, Initial residual = 1.18645547e-05, Final residual = 2.071811159e-10, No Iterations 1
DILUPBiCGStab:  Solving for Uy, Initial residual = 5.302190017e-05, Final residual = 8.496066075e-11, No Iterations 2
GAMG:  Solving for p, Initial residual = 0.0009061730393, Final residual = 5.147630321e-06, No Iterations 3
GAMG:  Solving for p, Initial residual = 2.094334025e-05, Final residual = 1.608290469e-07, No Iterations 6
time step continuity errors : sum local = 3.549989503e-11, global = -1.46479364e-12, cumulative = 1.079246728e-10
GAMG:  Solving for p, Initial residual = 3.179502049e-05, Final residual = 3.11571287e-07, No Iterations 4
GAMG:  Solving for p, Initial residual = 2.071700754e-06, Final residual = 6.354076128e-09, No Iterations 9
time step continuity errors : sum local = 1.402543526e-12, global = -1.557986609e-13, cumulative = 1.077688741e-10
ExecutionTime = 328.55 s  ClockTime = 363 s

forceCoeffs forceCoeffs write:
    Coefficient	Total	Pressure	Viscous	Internal
    Cd:	2.867899753	2.300729001	0.5671707516	0
    Cd(f):	1.433952956	1.150367721	0.2835852354	0
    Cd(r):	1.433946797	1.15036128	0.2835855162	0
    Cl:	-9.66206863e-05	-6.657347247e-05	-3.004721383e-05	0
    Cl(f):	-4.068694482e-05	-3.328673624e-05	-7.400208578e-06	0
    Cl(r):	-5.593374149e-05	-3.328673623e-05	-2.264700525e-05	0
    CmPitch:	7.623398334e-06	-2.512236061e-15	7.623398337e-06	0
    CmRoll:	3.079911645e-06	3.220337437e-06	-1.404257919e-07	0
    CmYaw:	-5.111888934e-05	-4.491642896e-05	-6.202460374e-06	0
    Cs:	5.057984918e-08	5.056443053e-08	1.541865555e-11	0
    Cs(f):	-5.109359941e-05	-4.489114675e-05	-6.202452665e-06	0
    Cs(r):	5.114417926e-05	4.494171118e-05	6.202468084e-06	0

    writing force and moment coefficient files.

Courant Number mean: 0.08551274176 max: 0.8999998242
deltaT = 0.0009110476871
Time = 1.9929961801759

PIMPLE: iteration 1
DILUPBiCGStab:  Solving for Ux, Initial residual = 1.18496053e-05, Final residual = 2.061315392e-10, No Iterations 1
DILUPBiCGStab:  Solving for Uy, Initial residual = 5.295899949e-05, Final residual = 8.678806232e-11, No Iterations 2
GAMG:  Solving for p, Initial residual = 0.0009059539445, Final residual = 5.159159159e-06, No Iterations 3
GAMG:  Solving for p, Initial residual = 2.088092958e-05, Final residual = 1.602001344e-07, No Iterations 6
time step continuity errors : sum local = 3.536192592e-11, global = -1.677614782e-12, cumulative = 1.060912594e-10
GAMG:  Solving for p, Initial residual = 3.168383771e-05, Final residual = 3.123440184e-07, No Iterations 4
GAMG:  Solving for p, Initial residual = 1.986675649e-06, Final residual = 4.373492059e-09, No Iterations 9
time step continuity errors : sum local = 9.65390848e-13, global = -1.259739531e-13, cumulative = 1.059652854e-10
ExecutionTime = 328.68 s  ClockTime = 363 s

forceCoeffs forceCoeffs write:
    Coefficient	Total	Pressure	Viscous	Internal
    Cd:	2.867905838	2.300735124	0.5671707148	0
    Cd(f):	1.433952147	1.150366916	0.2835852302	0
    Cd(r):	1.433953692	1.150368207	0.2835854846	0
    Cl:	-8.916911771e-05	-5.978134689e-05	-2.938777082e-05	0
    Cl(f):	-3.688198177e-05	-2.989067345e-05	-6.991308323e-06	0
    Cl(r):	-5.228713594e-05	-2.989067344e-05	-2.23964625e-05	0
    CmPitch:	7.702577083e-06	-2.736547782e-15	7.702577086e-06	0
    CmRoll:	-7.726317173e-07	-6.454613628e-07	-1.271703545e-07	0
    CmYaw:	-5.524803553e-05	-4.906246543e-05	-6.185570101e-06	0
    Cs:	5.057938164e-08	5.05659487e-08	1.343294235e-11	0
    Cs(f):	-5.522274584e-05	-4.903718246e-05	-6.185563384e-06	0
    Cs(r):	5.527332522e-05	4.90877484e-05	6.185576817e-06	0

    writing force and moment coefficient files.

Courant Number mean: 0.08551274423 max: 0.8999995104
deltaT = 0.0009110481827
Time = 1.99390722835864

PIMPLE: iteration 1
DILUPBiCGStab:  Solving for Ux, Initial residual = 1.183237398e-05, Final residual = 2.070429671e-10, No Iterations 1
DILUPBiCGStab:  Solving for Uy, Initial residual = 5.296038082e-05, Final residual = 8.543095071e-11, No Iterations 2
GAMG:  Solving for p, Initial residual = 0.0009061298171, Final residual = 5.151320978e-06, No Iterations 3
GAMG:  Solving for p, Initial residual = 2.094142067e-05, Final residual = 1.606558207e-07, No Iterations 6
time step continuity errors : sum local = 3.54623453e-11, global = -1.46855167e-12, cumulative = 1.044967337e-10
GAMG:  Solving for p, Initial residual = 3.178283372e-05, Final residual = 3.117451924e-07, No Iterations 4
GAMG:  Solving for p, Initial residual = 2.071481212e-06, Final residual = 6.378510719e-09, No Iterations 9
time step continuity errors : sum local = 1.407964241e-12, global = -1.558487521e-13, cumulative = 1.04340885e-10
ExecutionTime = 328.82 s  ClockTime = 364 s

forceCoeffs forceCoeffs write:
    Coefficient	Total	Pressure	Viscous	Internal
    Cd:	2.867899406	2.30072868	0.5671707258	0
    Cd(f):	1.433952787	1.150367564	0.2835852228	0
    Cd(r):	1.433946619	1.150361116	0.283585503	0
    Cl:	-7.87124816e-05	-4.998956303e-05	-2.872291857e-05	0
    Cl(f):	-3.157584562e-05	-2.499478152e-05	-6.581064101e-06	0
    Cl(r):	-4.713663598e-05	-2.499478151e-05	-2.214185447e-05	0
    CmPitch:	7.78039518e-06	-2.49844125e-15	7.780395183e-06	0
    CmRoll:	3.083716741e-06	3.223847319e-06	-1.401305777e-07	0
    CmYaw:	-5.112403728e-05	-4.492159461e-05	-6.202442665e-06	0
    Cs:	5.058293237e-08	5.056748633e-08	1.544604041e-11	0
    Cs(f):	-5.109874581e-05	-4.489631087e-05	-6.202434942e-06	0
    Cs(r):	5.114932874e-05	4.494687835e-05	6.202450388e-06	0

    writing force and moment coefficient files.

Courant Number mean: 0.08551277827 max: 0.8999998076
deltaT = 0.0009110483775
Time = 1.9948182767361

PIMPLE: iteration 1
DILUPBiCGStab:  Solving for Ux, Initial residual = 1.181797053e-05, Final residual = 2.060006568e-10, No Iterations 1
DILUPBiCGStab:  Solving for Uy, Initial residual = 5.290528238e-05, Final residual = 8.72149091e-11, No Iterations 2
GAMG:  Solving for p, Initial residual = 0.0009055392799, Final residual = 5.160474111e-06, No Iterations 3
GAMG:  Solving for p, Initial residual = 2.087473069e-05, Final residual = 1.602548528e-07, No Iterations 6
time step continuity errors : sum local = 3.537467886e-11, global = -1.685071052e-12, cumulative = 1.026558139e-10
GAMG:  Solving for p, Initial residual = 3.167348375e-05, Final residual = 3.124565305e-07, No Iterations 4
GAMG:  Solving for p, Initial residual = 1.985343572e-06, Final residual = 4.378120436e-09, No Iterations 9
time step continuity errors : sum local = 9.664309749e-13, global = -1.266712144e-13, cumulative = 1.025291427e-10
ExecutionTime = 328.96 s  ClockTime = 364 s

forceCoeffs forceCoeffs write:
    Coefficient	Total	Pressure	Viscous	Internal
    Cd:	2.867905486	2.300734797	0.5671706891	0
    Cd(f):	1.433951973	1.150366755	0.2835852177	0
    Cd(r):	1.433953513	1.150368042	0.2835854715	0
    Cl:	-7.110633657e-05	-4.307025293e-05	-2.803608364e-05	0
    Cl(f):	-2.769543116e-05	-2.153512647e-05	-6.160304697e-06	0
    Cl(r):	-4.341090541e-05	-2.153512646e-05	-2.187577895e-05	0
    CmPitch:	7.857737122e-06	-2.721614603e-15	7.857737124e-06	0
    CmRoll:	-7.702179653e-07	-6.433320092e-07	-1.268859561e-07	0
    CmYaw:	-5.524264091e-05	-4.905704875e-05	-6.185592157e-06	0
    Cs:	5.058242447e-08	5.056900159e-08	1.342288038e-11	0
    Cs(f):	-5.52173497e-05	-4.903176425e-05	-6.185585445e-06	0
    Cs(r):	5.526793212e-05	4.908233325e-05	6.185598868e-06	0

    writing force and moment coefficient files.

Courant Number mean: 0.08551278255 max: 0.8999994924
deltaT = 0.0009110488913
Time = 1.99572932562744

PIMPLE: iteration 1
DILUPBiCGStab:  Solving for Ux, Initial residual = 1.180152767e-05, Final residual = 2.068686001e-10, No Iterations 1
DILUPBiCGStab:  Solving for Uy, Initial residual = 5.291648013e-05, Final residual = 8.588776364e-11, No Iterations 2
GAMG:  Solving for p, Initial residual = 0.0009056509323, Final residual = 5.158309868e-06, No Iterations 3
GAMG:  Solving for p, Initial residual = 2.094386097e-05, Final residual = 1.607321054e-07, No Iterations 6
time step continuity errors : sum local = 3.547987546e-11, global = -1.468124986e-12, cumulative = 1.010610177e-10
GAMG:  Solving for p, Initial residual = 3.177438224e-05, Final residual = 3.121311665e-07, No Iterations 4
GAMG:  Solving for p, Initial residual = 2.077041974e-06, Final residual = 6.598003609e-09, No Iterations 9
time step continuity errors : sum local = 1.456442538e-12, global = -1.56485027e-13, cumulative = 1.009045327e-10
ExecutionTime = 329.09 s  ClockTime = 364 s

forceCoeffs forceCoeffs write:
    Coefficient	Total	Pressure	Viscous	Internal
    Cd:	2.867899058	2.300728358	0.5671707002	0
    Cd(f):	1.433952615	1.150367405	0.2835852102	0
    Cd(r):	1.433946443	1.150360953	0.28358549	0
    Cl:	-6.059351588e-05	-3.324973986e-05	-2.734377602e-05	0
    Cl(f):	-2.236314116e-05	-1.662486993e-05	-5.738271231e-06	0
    Cl(r):	-3.823037471e-05	-1.662486993e-05	-2.160550479e-05	0
    CmPitch:	7.933616776e-06	-2.483554756e-15	7.933616778e-06	0
    CmRoll:	3.086117619e-06	3.22598531e-06	-1.398676909e-07	0
    CmYaw:	-5.112930121e-05	-4.492687648e-05	-6.20242473e-06	0
    Cs:	5.058600481e-08	5.057053211e-08	1.547269616e-11	0
    Cs(f):	-5.11040082e-05	-4.490159121e-05	-6.202416994e-06	0
    Cs(r):	5.115459421e-05	4.495216174e-05	6.202432467e-06	0

    writing force and moment coefficient files.

Courant Number mean: 0.08551281879 max: 0.8999997922
deltaT = 0.0009110491017
Time = 1.99664037472917

PIMPLE: iteration 1
DILUPBiCGStab:  Solving for Ux, Initial residual = 1.178743862e-05, Final residual = 2.058540505e-10, No Iterations 1
DILUPBiCGStab:  Solving for Uy, Initial residual = 5.284774574e-05, Final residual = 8.762691624e-11, No Iterations 2
GAMG:  Solving for p, Initial residual = 0.0009051588008, Final residual = 5.162439625e-06, No Iterations 3
GAMG:  Solving for p, Initial residual = 2.087246946e-05, Final residual = 1.600433576e-07, No Iterations 6
time step continuity errors : sum local = 3.532867898e-11, global = -1.690914091e-12, cumulative = 9.92136186e-11
GAMG:  Solving for p, Initial residual = 3.166228581e-05, Final residual = 3.124817451e-07, No Iterations 4
GAMG:  Solving for p, Initial residual = 1.983880638e-06, Final residual = 4.386149076e-09, No Iterations 9
time step continuity errors : sum local = 9.682220688e-13, global = -1.277287786e-13, cumulative = 9.908588983e-11
ExecutionTime = 329.23 s  ClockTime = 364 s

forceCoeffs forceCoeffs write:
    Coefficient	Total	Pressure	Viscous	Internal
    Cd:	2.867905133	2.30073447	0.5671706637	0
    Cd(f):	1.433951798	1.150366593	0.2835852052	0
    Cd(r):	1.433953335	1.150367876	0.2835854585	0
    Cl:	-5.293843956e-05	-2.630772631e-05	-2.663071325e-05	0
    Cl(f):	-1.846028972e-05	-1.315386316e-05	-5.306426565e-06	0
    Cl(r):	-3.447814983e-05	-1.315386315e-05	-2.132428668e-05	0
    CmPitch:	8.008930056e-06	-2.705956088e-15	8.008930058e-06	0
    CmRoll:	-7.682927208e-07	-6.416591481e-07	-1.266335727e-07	0
    CmYaw:	-5.523731831e-05	-4.905170275e-05	-6.185615563e-06	0
    Cs:	5.058545938e-08	5.05720475e-08	1.341188303e-11	0
    Cs(f):	-5.521202558e-05	-4.902641672e-05	-6.185608857e-06	0
    Cs(r):	5.526261104e-05	4.907698877e-05	6.185622269e-06	0

    writing force and moment coefficient files.

Courant Number mean: 0.08551282465 max: 0.8999994755
deltaT = 0.0009110496327
Time = 1.99755142436186

PIMPLE: iteration 1
DILUPBiCGStab:  Solving for Ux, Initial residual = 1.177077654e-05, Final residual = 2.067053804e-10, No Iterations 1
DILUPBiCGStab:  Solving for Uy, Initial residual = 5.285833007e-05, Final residual = 8.631769894e-11, No Iterations 2
GAMG:  Solving for p, Initial residual = 0.0009056027691, Final residual = 5.16437603e-06, No Iterations 3
GAMG:  Solving for p, Initial residual = 2.096990163e-05, Final residual = 1.605889474e-07, No Iterations 6
time step continuity errors : sum local = 3.544896832e-11, global = -1.471835512e-12, cumulative = 9.761405431e-11
GAMG:  Solving for p, Initial residual = 3.177659555e-05, Final residual = 3.120680133e-07, No Iterations 4
GAMG:  Solving for p, Initial residual = 2.077310066e-06, Final residual = 6.593385465e-09, No Iterations 9
time step continuity errors : sum local = 1.455451612e-12, global = -1.568505399e-13, cumulative = 9.745720377e-11
ExecutionTime = 329.36 s  ClockTime = 364 s

forceCoeffs forceCoeffs write:
    Coefficient	Total	Pressure	Viscous	Internal
    Cd:	2.867898713	2.300728038	0.5671706747	0
    Cd(f):	1.433952448	1.15036725	0.2835851977	0
    Cd(r):	1.433946265	1.150360788	0.283585477	0
    Cl:	-4.232988994e-05	-1.641687957e-05	-2.591301036e-05	0
    Cl(f):	-1.308225054e-05	-8.208439789e-06	-4.873810746e-06	0
    Cl(r):	-2.92476394e-05	-8.208439784e-06	-2.103919962e-05	0
    CmPitch:	8.082694433e-06	-2.470542925e-15	8.082694435e-06	0
    CmRoll:	3.091269151e-06	3.230885266e-06	-1.396161156e-07	0
    CmYaw:	-5.113428995e-05	-4.493188349e-05	-6.202406461e-06	0
    Cs:	5.058907692e-08	5.057357384e-08	1.550307803e-11	0
    Cs(f):	-5.110899541e-05	-4.49065967e-05	-6.202398709e-06	0
    Cs(r):	5.115958449e-05	4.495717028e-05	6.202414212e-06	0

    writing force and moment coefficient files.

Courant Number mean: 0.08551286265 max: 0.8999997779
deltaT = 0.0009110498576
Time = 1.99846247421942

PIMPLE: iteration 1
DILUPBiCGStab:  Solving for Ux, Initial residual = 1.1755704e-05, Final residual = 2.057025647e-10, No Iterations 1
DILUPBiCGStab:  Solving for Uy, Initial residual = 5.279656021e-05, Final residual = 8.800807488e-11, No Iterations 2
GAMG:  Solving for p, Initial residual = 0.0009049215165, Final residual = 5.178756082e-06, No Iterations 3
GAMG:  Solving for p, Initial residual = 2.088826442e-05, Final residual = 1.596769717e-07, No Iterations 6
time step continuity errors : sum local = 3.524848475e-11, global = -1.680653968e-12, cumulative = 9.577654981e-11
GAMG:  Solving for p, Initial residual = 3.167538923e-05, Final residual = 3.125728033e-07, No Iterations 4
GAMG:  Solving for p, Initial residual = 1.983037511e-06, Final residual = 4.413843992e-09, No Iterations 9
time step continuity errors : sum local = 9.74354518e-13, global = -1.287763666e-13, cumulative = 9.564777344e-11
ExecutionTime = 329.5 s  ClockTime = 364 s

forceCoeffs forceCoeffs write:
    Coefficient	Total	Pressure	Viscous	Internal
    Cd:	2.867904788	2.30073415	0.5671706383	0
    Cd(f):	1.433951633	1.15036644	0.2835851928	0
    Cd(r):	1.433953155	1.15036771	0.2835854455	0
    Cl:	-3.464059961e-05	-9.465628923e-06	-2.517497068e-05	0
    Cl(f):	-9.164493669e-06	-4.732814464e-06	-4.431679204e-06	0
    Cl(r):	-2.547610594e-05	-4.732814459e-06	-2.074329148e-05	0
    CmPitch:	8.155806135e-06	-2.693986133e-15	8.155806138e-06	0
    CmRoll:	-7.612985077e-07	-6.349638515e-07	-1.263346562e-07	0
    CmYaw:	-5.523157868e-05	-4.904594538e-05	-6.185633304e-06	0
    Cs:	5.058849443e-08	5.057508717e-08	1.340726278e-11	0
    Cs(f):	-5.520628444e-05	-4.902065784e-05	-6.1856266e-06	0
    Cs(r):	5.525687293e-05	4.907123292e-05	6.185640007e-06	0

    writing force and moment coefficient files.

Courant Number mean: 0.08551286988 max: 0.8999994598
deltaT = 0.0009110504044
Time = 1.99937352462384

PIMPLE: iteration 1
DILUPBiCGStab:  Solving for Ux, Initial residual = 1.173854774e-05, Final residual = 2.065040266e-10, No Iterations 1
DILUPBiCGStab:  Solving for Uy, Initial residual = 5.281061789e-05, Final residual = 8.67226651e-11, No Iterations 2
GAMG:  Solving for p, Initial residual = 0.0009045128197, Final residual = 5.166342553e-06, No Iterations 3
GAMG:  Solving for p, Initial residual = 2.094041678e-05, Final residual = 1.603275074e-07, No Iterations 6
time step continuity errors : sum local = 3.539194861e-11, global = -1.474404178e-12, cumulative = 9.417336926e-11
GAMG:  Solving for p, Initial residual = 3.175144628e-05, Final residual = 3.122202243e-07, No Iterations 4
GAMG:  Solving for p, Initial residual = 2.076160084e-06, Final residual = 6.592656364e-09, No Iterations 9
time step continuity errors : sum local = 1.455318854e-12, global = -1.5682469e-13, cumulative = 9.401654457e-11
ExecutionTime = 329.62 s  ClockTime = 364 s

forceCoeffs forceCoeffs write:
    Coefficient	Total	Pressure	Viscous	Internal
    Cd:	2.867898371	2.300727722	0.5671706495	0
    Cd(f):	1.433952283	1.150367098	0.2835851855	0
    Cd(r):	1.433946088	1.150360624	0.283585464	0
    Cl:	-2.402801193e-05	4.05534836e-07	-2.443354676e-05	0
    Cl(f):	-3.786721179e-06	2.027674156e-07	-3.989488595e-06	0
    Cl(r):	-2.024129075e-05	2.027674205e-07	-2.044405817e-05	0
    CmPitch:	8.227284784e-06	-2.448912626e-15	8.227284787e-06	0
    CmRoll:	3.097367558e-06	3.236636925e-06	-1.392693665e-07	0
    CmYaw:	-5.113935341e-05	-4.493697334e-05	-6.202380066e-06	0
    Cs:	5.059213969e-08	5.057660875e-08	1.553094592e-11	0
    Cs(f):	-5.111405734e-05	-4.491168504e-05	-6.202372301e-06	0
    Cs(r):	5.116464948e-05	4.496226165e-05	6.202387832e-06	0

    writing force and moment coefficient files.

Courant Number mean: 0.08551290935 max: 0.8999997647
deltaT = 0.0009110506426
--> FOAM Warning : 
    From virtual Foam::Time& Foam::Time::operator++()
    in file db/Time/Time.C at line 1228
    Increased the timePrecision from 15 to 16 to distinguish between timeNames at time 2.000284575266415
Time = 2.000284575266415

PIMPLE: iteration 1
DILUPBiCGStab:  Solving for Ux, Initial residual = 1.172372379e-05, Final residual = 2.055059281e-10, No Iterations 1
DILUPBiCGStab:  Solving for Uy, Initial residual = 5.273973446e-05, Final residual = 8.836525157e-11, No Iterations 2
GAMG:  Solving for p, Initial residual = 0.0009039855235, Final residual = 5.165113443e-06, No Iterations 3
GAMG:  Solving for p, Initial residual = 2.085099774e-05, Final residual = 1.598188284e-07, No Iterations 6
time step continuity errors : sum local = 3.528048669e-11, global = -1.689130158e-12, cumulative = 9.232741441e-11
GAMG:  Solving for p, Initial residual = 3.16581757e-05, Final residual = 3.124990274e-07, No Iterations 4
GAMG:  Solving for p, Initial residual = 1.981156903e-06, Final residual = 4.392466081e-09, No Iterations 9
time step continuity errors : sum local = 9.696541048e-13, global = -1.285214682e-13, cumulative = 9.219889294e-11
ExecutionTime = 329.93 s  ClockTime = 368 s

forceCoeffs forceCoeffs write:
    Coefficient	Total	Pressure	Viscous	Internal
    Cd:	2.86790444	2.300733826	0.5671706133	0
    Cd(f):	1.433951463	1.150366282	0.2835851807	0
    Cd(r):	1.433952977	1.150367544	0.2835854326	0
    Cl:	-1.631569534e-05	7.357337797e-06	-2.367303314e-05	0
    Cl(f):	1.401740027e-07	3.678668896e-06	-3.538494893e-06	0
    Cl(r):	-1.645586934e-05	3.678668901e-06	-2.013453824e-05	0
    CmPitch:	8.298021672e-06	-2.677399207e-15	8.298021675e-06	0
    CmRoll:	-7.568249429e-07	-6.308541767e-07	-1.259707663e-07	0
    CmYaw:	-5.522624213e-05	-4.904059474e-05	-6.185647394e-06	0
    Cs:	5.059151551e-08	5.057811842e-08	1.339708979e-11	0
    Cs(f):	-5.520094637e-05	-4.901530568e-05	-6.185640696e-06	0
    Cs(r):	5.525153789e-05	4.90658838e-05	6.185654093e-06	0

    writing force and moment coefficient files.

    functionObjects::CourantNo CourantNo writing field: Co
End

