/*---------------------------------------------------------------------------*\
| =========                 |                                                 |
| \\      /  F ield         | OpenFOAM: The Open Source CFD Toolbox           |
|  \\    /   O peration     | Version:  2512                                  |
|   \\  /    A nd           | Website:  www.openfoam.com                      |
|    \\/     M anipulation  |                                                 |
\*---------------------------------------------------------------------------*/
Build  : _87ed40d256-20251219 OPENFOAM=2512 version=v2512
Arch   : "LSB;label=32;scalar=64"
Exec   : snappyHexMesh -overwrite
Date   : Apr 03 2026
Time   : 16:37:21
Host   : DESKTOP-EJKBDEA
PID    : 7542
I/O    : uncollated
Case   : /mnt/c/openfoam-case/VV_cases/V1_solver/baseline_fine_Re160
nProcs : 1
trapFpe: Floating point exception trapping enabled (FOAM_SIGFPE).
memory pool : not available
fileModificationChecking : Monitoring run-time modified files using timeStampMaster (fileModificationSkew 5, maxFileModificationPolls 20)
allowSystemOperations : Allowing user-supplied system call operations

// * * * * * * * * * * * * * * * * * * * * * * * * * * * * * * * * * * * * * //
Create time

Create mesh for time = 0

Read mesh in = 0.04 s

Overall mesh bounding box  : (-0.096 -0.012 -0.005) (0.24 0.012 0.005)
Relative tolerance         : 1e-06
Absolute matching distance : 3.37004451e-07

Reading refinement surfaces.
Read refinement surfaces in = 0 s

Reading refinement shells.
Refinement level 3 for all cells inside nearCylinder
Refinement level 2 for all cells inside wakeBox
Read refinement shells in = 0.01 s

Setting refinement level of surface to be consistent with shells.
Checked shell refinement in = 0 s

Reading features.
Read features in = 0 s


Determining initial surface intersections
-----------------------------------------

Edge intersection testing:
    Number of edges             : 8244
    Number of edges to retest   : 0
    Number of intersected edges : 0
Edge intersection testing:
    Number of edges             : 8244
    Number of edges to retest   : 8244
    Number of intersected edges : 24
Calculated surface intersections in = 0.01 s

Initial mesh : cells:2016  faces:8244  points:4394
Cells per refinement level:
    0	2016
Setting refinement level of surface to be consistent with curvature.
Checked curvature refinement in = 0 s


Adding patches for surface regions
----------------------------------

Patch Type                Region                        
----- ----                ------                        
cylinder:

6     wall                cylinder                      

Added patches in = 0 s

Edge intersection testing:
    Number of edges             : 8244
    Number of edges to retest   : 0
    Number of intersected edges : 24
Decomposition method none [1]

Refinement phase
----------------

Found point (-0.09 0 0) in cell 843 on processor 0

Surface refinement iteration 0
------------------------------

Marked for refinement due to surface intersection          : 36 cells.
Determined cells to refine in = 0.01 s
Selected for refinement : 36 cells (out of 2016)
Edge intersection testing:
    Number of edges             : 9180
    Number of edges to retest   : 1248
    Number of intersected edges : 96
Refined mesh in = 0.01 s
After refinement surface refinement iteration 0 : cells:2268  faces:9180  points:4850
Cells per refinement level:
    0	1980
    1	288

Surface refinement iteration 1
------------------------------

Marked for refinement due to surface intersection          : 136 cells.
Determined cells to refine in = 0 s
Selected for refinement : 140 cells (out of 2268)
Edge intersection testing:
    Number of edges             : 12624
    Number of edges to retest   : 4452
    Number of intersected edges : 384
Refined mesh in = 0.01 s
After refinement surface refinement iteration 1 : cells:3248  faces:12624  points:6382
Cells per refinement level:
    0	1976
    1	184
    2	1088

Surface refinement iteration 2
------------------------------

Marked for refinement due to surface intersection          : 528 cells.
Determined cells to refine in = 0 s
Selected for refinement : 576 cells (out of 3248)
Edge intersection testing:
    Number of edges             : 26340
    Number of edges to retest   : 17912
    Number of intersected edges : 1536
Refined mesh in = 0.04 s
After refinement surface refinement iteration 2 : cells:7280  faces:26340  points:12126
Cells per refinement level:
    0	1968
    1	208
    2	880
    3	4224

Surface refinement iteration 3
------------------------------

Marked for refinement due to surface intersection          : 2144 cells.
Determined cells to refine in = 0 s
Selected for refinement : 2328 cells (out of 7280)
Edge intersection testing:
    Number of edges             : 80808
    Number of edges to retest   : 70492
    Number of intersected edges : 6144
Refined mesh in = 0.11 s
After refinement surface refinement iteration 3 : cells:23576  faces:80808  points:34194
Cells per refinement level:
    0	1960
    1	256
    2	848
    3	3360
    4	17152

Surface refinement iteration 4
------------------------------

Marked for refinement due to surface intersection          : 0 cells.
Determined cells to refine in = 0.01 s
Selected for refinement : 0 cells (out of 23576)
Stopping refining since too few cells selected.


Removing mesh beyond surface intersections
------------------------------------------

Setting cellZones according to locationsInMesh:
Location : (-0.09 0 0)
    cellZone : none

For cellZone none found point (-0.09 0 0) in global region 0 out of 2 regions.
--> FOAM Warning : 
    From void Foam::meshRefinement::nearestFace(const Foam::labelUList&, const Foam::bitSet&, Foam::autoPtr<Foam::mapDistribute>&, Foam::labelList&, Foam::label) const
    in file meshRefinement/meshRefinement.C at line 526
    Did not visit some faces, e.g. face 0 at (-0.094 -0.011 0)
Keeping all cells containing inside points
Selected for keeping : 18796 cells.
Edge intersection testing:
    Number of edges             : 66220
    Number of edges to retest   : 5888
    Number of intersected edges : 6144

Shell refinement iteration 0
----------------------------

Marked for refinement due to distance to explicit features : 0 cells.
Marked for refinement due to refinement shells             : 1600 cells.
Determined cells to refine in = 0.16 s
Selected for internal refinement : 2016 cells (out of 18796)
Edge intersection testing:
    Number of edges             : 112561
    Number of edges to retest   : 74366
    Number of intersected edges : 6144
Refined mesh in = 0.15 s
After refinement shell refinement iteration 0 : cells:32908  faces:112561  points:47408
Cells per refinement level:
    0	972
    1	7872
    2	1216
    3	5120
    4	17728

Shell refinement iteration 1
----------------------------

Marked for refinement due to distance to explicit features : 0 cells.
Marked for refinement due to refinement shells             : 9088 cells.
Determined cells to refine in = 0.02 s
Selected for internal refinement : 9112 cells (out of 32908)
Edge intersection testing:
    Number of edges             : 317803
    Number of edges to retest   : 244266
    Number of intersected edges : 6144
Refined mesh in = 0.35 s
After refinement shell refinement iteration 1 : cells:96692  faces:317803  points:125258
Cells per refinement level:
    0	948
    1	192
    2	62976
    3	14848
    4	17728

Shell refinement iteration 2
----------------------------

Marked for refinement due to distance to explicit features : 0 cells.
Marked for refinement due to refinement shells             : 35328 cells.
Determined cells to refine in = 0.02 s
Selected for internal refinement : 35376 cells (out of 96692)
Edge intersection testing:
    Number of edges             : 1089529
    Number of edges to retest   : 896478
    Number of intersected edges : 6144
Refined mesh in = 1.32 s
After refinement shell refinement iteration 2 : cells:344324  faces:1089529  points:401909
Cells per refinement level:
    0	948
    1	144
    2	28032
    3	297472
    4	17728

Shell refinement iteration 3
----------------------------

Marked for refinement due to distance to explicit features : 0 cells.
Marked for refinement due to refinement shells             : 0 cells.
Determined cells to refine in = 0.08 s
Selected for internal refinement : 12 cells (out of 344324)
Edge intersection testing:
    Number of edges             : 1089820
    Number of edges to retest   : 751
    Number of intersected edges : 6144
Refined mesh in = 0.94 s
After refinement shell refinement iteration 3 : cells:344408  faces:1089820  points:402033
Cells per refinement level:
    0	936
    1	240
    2	28032
    3	297472
    4	17728

Shell refinement iteration 4
----------------------------

Marked for refinement due to distance to explicit features : 0 cells.
Marked for refinement due to refinement shells             : 0 cells.
Determined cells to refine in = 0.06 s
Selected for internal refinement : 0 cells (out of 344408)
Stopping refining since too few cells selected.


Dangling coarse cells refinement iteration 0
--------------------------------------------

Determined cells to refine in = 0.02 s
Selected for refinement : 0 cells (out of 344408)
Stopping refining since too few cells selected.


Dangling coarse cells refinement iteration 0
--------------------------------------------

Determined cells to refine in = 0.01 s
Selected for refinement : 0 cells (out of 344408)
Stopping refining since too few cells selected.


Refinement transition refinement iteration 0
--------------------------------------------

Determined cells to refine in = 0.03 s
Selected for refinement : 0 cells (out of 344408)
Stopping refining since too few cells selected.


Splitting mesh at surface intersections
---------------------------------------

Introducing baffles for 6144 faces that are intersected by the surface.

Setting cellZones according to locationsInMesh:
Location : (-0.09 0 0)
    cellZone : none

For cellZone none found point (-0.09 0 0) in global region 0 out of 2 regions.
Edge intersection testing:
    Number of edges             : 1095964
    Number of edges to retest   : 38748
    Number of intersected edges : 12288
Created baffles in = 0.79 s


After introducing baffles : cells:344408  faces:1095964  points:402033
Cells per refinement level:
    0	936
    1	240
    2	28032
    3	297472
    4	17728

Introducing baffles to block off problem cells
----------------------------------------------

markFacesOnProblemCells : marked 11164 additional internal faces to be converted into baffles.
Analyzed problem cells in = 0.54 s


Introducing baffles to delete problem cells.

Edge intersection testing:
    Number of edges             : 1107128
    Number of edges to retest   : 35472
    Number of intersected edges : 12288
Created baffles in = 0.6 s


After introducing baffles : cells:344408  faces:1107128  points:402033
Cells per refinement level:
    0	936
    1	240
    2	28032
    3	297472
    4	17728
Setting cellZones according to locationsInMesh:
Location : (-0.09 0 0)
    cellZone : none

For cellZone none found point (-0.09 0 0) in global region 0 out of 5705 regions.
Edge intersection testing:
    Number of edges             : 1107128
    Number of edges to retest   : 44896
    Number of intersected edges : 12288

Remove unreachable sections of mesh
-----------------------------------

Keeping all cells containing points 1((-0.09 0 0))
Selected for keeping : 337944 cells.
Edge intersection testing:
    Number of edges             : 1069960
    Number of edges to retest   : 0
    Number of intersected edges : 6144
Split mesh in = 1.45 s


After subsetting : cells:337944  faces:1069960  points:395097
Cells per refinement level:
    0	936
    1	240
    2	28032
    3	297472
    4	11264

Introducing zones for interfaces
--------------------------------

Setting cellZones according to locationsInMesh:
Location : (-0.09 0 0)
    cellZone : none

For cellZone none found point (-0.09 0 0) in global region 0 out of 1 regions.
Setting faceZones according to neighbouring cellZones:

Edge intersection testing:
    Number of edges             : 1069960
    Number of edges to retest   : 0
    Number of intersected edges : 6144

Handling cells with snap problems
---------------------------------

Introducing baffles for 6144 faces that are intersected by the surface.

Setting cellZones according to locationsInMesh:
Location : (-0.09 0 0)
    cellZone : none

For cellZone none found point (-0.09 0 0) in global region 0 out of 1 regions.
Edge intersection testing:
    Number of edges             : 1069960
    Number of edges to retest   : 19536
    Number of intersected edges : 6144
Created baffles in = 1.42 s


After introducing baffles : cells:337944  faces:1069960  points:395097
Cells per refinement level:
    0	936
    1	240
    2	28032
    3	297472
    4	11264

Introducing baffles to block off problem cells
----------------------------------------------

markFacesOnProblemCells : marked 0 additional internal faces to be converted into baffles.
Analyzed problem cells in = 0.52 s


Introducing baffles to delete problem cells.

Created baffles in = 0.08 s


After introducing baffles : cells:337944  faces:1069960  points:395097
Cells per refinement level:
    0	936
    1	240
    2	28032
    3	297472
    4	11264
Setting cellZones according to locationsInMesh:
Location : (-0.09 0 0)
    cellZone : none

For cellZone none found point (-0.09 0 0) in global region 0 out of 1 regions.
Edge intersection testing:
    Number of edges             : 1069960
    Number of edges to retest   : 19536
    Number of intersected edges : 6144

Remove unreachable sections of mesh
-----------------------------------

Split mesh in = 0.83 s


After subsetting : cells:337944  faces:1069960  points:395097
Cells per refinement level:
    0	936
    1	240
    2	28032
    3	297472
    4	11264

Merge free-standing baffles
---------------------------

freeStandingBaffles : detected 0 free-standing baffles out of 0

Detected free-standing baffles : 0
Merged free-standing baffles in = 0.16 s


dupNonManifoldPoints : Found : 0 non-manifold points (out of 395097)
Detected unsplittable baffles : 0

Merge refined boundary faces
----------------------------

Merging 0 sets of faces.

No faces merged ...

Merging all points on surface that
- are used by only two boundary faces and
- make an angle with a cosine of more than 0.7071067812.

No straight edges simplified and no points removed ...
Refined mesh : cells:337944  faces:1069960  points:395097
Cells per refinement level:
    0	936
    1	240
    2	28032
    3	297472
    4	11264
Writing mesh to time constant
Wrote mesh in = 1.3 s.
Mesh refined in = 11.62 s.

Morphing phase
--------------

Duplicating 0 points on faceZones of type boundary
Snapping to features in 10 iterations ...
Constructing mesh displacer ...
Using mesh parameters 
{
    maxNonOrtho     65;
    maxBoundarySkewness 20;
    maxInternalSkewness 4;
    maxConcave      80;
    minVol          1e-13;
    minTetQuality   1e-30;
    minArea         -1;
    minTwist        0.02;
    minDeterminant  0.001;
    minFaceWeight   0.02;
    minVolRatio     0.01;
    minTriangleTwist -1;
    nSmoothScale    4;
    errorReduction  0.75;
    relaxed
    {
        maxNonOrtho     75;
    }
}


Checking initial mesh ...
Checking faces in error :
    non-orthogonality > 65  degrees                        : 0
    faces with face pyramid volume < 1e-13                 : 0
    faces with face-decomposition tet quality < 1e-30      : 0
    faces with concavity > 80  degrees                     : 0
    faces with skewness > 4   (internal) or 20  (boundary) : 0
    faces with interpolation weights (0..1)  < 0.02        : 0
    faces with volume ratio of neighbour cells < 0.01      : 0
    faces with face twist < 0.02                           : 0
    faces on cells with determinant < 0.001                : 0
Detected 0 illegal faces (concave, zero area or negative cell pyramid volume)
Checked initial mesh in = 2.63 s


Smoothing patch points ...
Smoothing iteration 0
Found 0 non-manifold point(s).

Scaling iteration 0
Moving mesh using displacement scaling : min:1 max:1
Correcting 2-D mesh motion--> FOAM Warning : 
    From void Foam::twoDPointCorrector::calcAddressing() const
    in file twoDPointCorrector/twoDPointCorrector.C at line 153
    the number of vertices in the geometry is odd - this should not be the case for a 2-D case. Please check the geometry.
--> FOAM Warning : 
    From void Foam::twoDPointCorrector::calcAddressing() const
    in file twoDPointCorrector/twoDPointCorrector.C at line 162
    The number of points in the mesh is not equal to twice the number of edges normal to the plane - this may be OK only for wedge geometries.
    Please check the geometry or adjust the orthogonality tolerance.

Number of normal edges: 348120 number of points: 395097
 ...done
Checking faces in error :
    non-orthogonality > 65  degrees                        : 0
    faces with face pyramid volume < 1e-13                 : 0
    faces with face-decomposition tet quality < 1e-30      : 0
    faces with concavity > 80  degrees                     : 0
    faces with skewness > 4   (internal) or 20  (boundary) : 0
    faces with interpolation weights (0..1)  < 0.02        : 0
    faces with volume ratio of neighbour cells < 0.01      : 0
    faces with face twist < 0.02                           : 0
    faces on cells with determinant < 0.001                : 0
Successfully moved mesh

Smoothing iteration 1
Found 0 non-manifold point(s).

Scaling iteration 0
Moving mesh using displacement scaling : min:1 max:1
