/*---------------------------------------------------------------------------*\
| =========                 |                                                 |
| \\      /  F ield         | OpenFOAM: The Open Source CFD Toolbox           |
|  \\    /   O peration     | Version:  2512                                  |
|   \\  /    A nd           | Website:  www.openfoam.com                      |
|    \\/     M anipulation  |                                                 |
\*---------------------------------------------------------------------------*/
Build  : _87ed40d256-20251219 OPENFOAM=2512 version=v2512
Arch   : "LSB;label=32;scalar=64"
Exec   : pimpleFoam
Date   : Apr 03 2026
Time   : 14:05:17
Host   : DESKTOP-EJKBDEA
PID    : 2661
I/O    : uncollated
Case   : /mnt/c/openfoam-case/VV_cases/V1_solver/baseline_medium_Re100
nProcs : 1
trapFpe: Floating point exception trapping enabled (FOAM_SIGFPE).
memory pool : not available
fileModificationChecking : Monitoring run-time modified files using timeStampMaster (fileModificationSkew 5, maxFileModificationPolls 20)
allowSystemOperations : Allowing user-supplied system call operations

// * * * * * * * * * * * * * * * * * * * * * * * * * * * * * * * * * * * * * //
Create time

Create mesh for time = 0


PIMPLE: Operating solver in PISO mode

Reading field p

Reading field U

--> FOAM Warning : 
>>> DEPRECATED after version 2212. This is about 36 months old. <<<

    From Foam::exprFixedValueFvPatchField<Type>::exprFixedValueFvPatchField(const Foam::fvPatch&, const Foam::DimensionedField<Type, Foam::volMesh>&, const Foam::dictionary&, Foam::IOobjectOption::readOption) [with Type = Foam::Vector<double>]
    in file expressions/fields/fvPatchFields/exprFixedValueFvPatchField.C at line 110
    Use uniformFixedValue with an expression Function1 instead.
    This boundary condition will be removed in the future
Reading/calculating face flux field phi

Selecting incompressible transport model Newtonian
Selecting turbulence model type laminar
Selecting laminar stress model Stokes
No MRF models present

No finite volume options present
Courant Number mean: 0.07266206835 max: 4.212414264
forceCoeffs forceCoeffs:
    rho: rhoInf
    Freestream density (rhoInf) set to 1.205
    Not including porosity effects
    magUInf: 0.126333333
    lRef   : 0.012
    Aref   : 0.00012
    rhoInf : 1.205
    Selecting all coefficients
    - Drag force: Cd
    - Drag force front: Cd(f)
    - Drag force rear: Cd(r)
    - Lift force: Cl
    - Lift force front: Cl(f)
    - Lift force rear: Cl(r)
    - Pitch moment: CmPitch
    - Roll moment: CmRoll
    - Yaw moment: CmYaw
    - Side force: Cs
    - Side force front: Cs(f)
    - Side force rear: Cs(r)


Courant Number mean: 0.01552455609 max: 0.9

Starting time loop

Courant Number mean: 0.01552455609 max: 0.9
deltaT = 0.0002136542001
Time = 0.000213654200079

PIMPLE: iteration 1
DILUPBiCGStab:  Solving for Ux, Initial residual = 0.002660741821, Final residual = 7.49366421e-10, No Iterations 2
DILUPBiCGStab:  Solving for Uy, Initial residual = 0.04767088372, Final residual = 5.343517528e-10, No Iterations 3
GAMG:  Solving for p, Initial residual = 1, Final residual = 0.008759080071, No Iterations 9
GAMG:  Solving for p, Initial residual = 0.6190978103, Final residual = 0.003882920783, No Iterations 5
time step continuity errors : sum local = 6.719161546e-06, global = -2.004517402e-08, cumulative = -2.004517402e-08
GAMG:  Solving for p, Initial residual = 0.1518912267, Final residual = 0.00100554044, No Iterations 5
GAMG:  Solving for p, Initial residual = 0.03026835734, Final residual = 8.288458545e-09, No Iterations 38
time step continuity errors : sum local = 2.362875862e-11, global = 2.001994627e-12, cumulative = -2.004317202e-08
ExecutionTime = 0.75 s  ClockTime = 1 s

forceCoeffs forceCoeffs write:
    Coefficient	Total	Pressure	Viscous	Internal
    Cd:	1015.745895	1009.265033	6.480861703	0
    Cd(f):	507.8691138	504.628667	3.240446768	0
    Cd(r):	507.8767812	504.6363662	3.240414934	0
    Cl:	-2.424089293	-2.424183865	9.457178893e-05	0
    Cl(f):	-1.221391719	-1.212091932	-0.009299786207	0
    Cl(r):	-1.202697574	-1.212091932	0.009394357995	0
    CmPitch:	-0.009347072153	-5.22247587e-11	-0.009347072101	0
    CmRoll:	-0.00383370036	-0.003849617382	1.591702193e-05	0
    CmYaw:	0.008171866685	0.008105483363	6.638332149e-05	0
    Cs:	3.529712987e-05	3.528718777e-05	9.942097641e-09	0
    Cs(f):	0.00818951525	0.008123126957	6.638829253e-05	0
    Cs(r):	-0.00815421812	-0.008087839769	-6.637835044e-05	0

    writing force and moment coefficient files.

Courant Number mean: 0.01686453617 max: 0.3655653356
deltaT = 0.0002563850401
Time = 0.000470039240174

PIMPLE: iteration 1
DILUPBiCGStab:  Solving for Ux, Initial residual = 0.0993862533, Final residual = 3.158154706e-11, No Iterations 3
DILUPBiCGStab:  Solving for Uy, Initial residual = 0.3759273335, Final residual = 2.491652575e-10, No Iterations 3
GAMG:  Solving for p, Initial residual = 0.3868563171, Final residual = 0.002528914867, No Iterations 7
GAMG:  Solving for p, Initial residual = 0.5569536569, Final residual = 0.004119648419, No Iterations 5
time step continuity errors : sum local = 1.1972919e-05, global = 5.439622524e-08, cumulative = 3.435305322e-08
GAMG:  Solving for p, Initial residual = 0.1873497182, Final residual = 0.001490125245, No Iterations 5
GAMG:  Solving for p, Initial residual = 0.04222027297, Final residual = 8.276387572e-09, No Iterations 43
time step continuity errors : sum local = 2.633901579e-11, global = 2.328500701e-12, cumulative = 3.435538172e-08
ExecutionTime = 1.06 s  ClockTime = 2 s

forceCoeffs forceCoeffs write:
    Coefficient	Total	Pressure	Viscous	Internal
    Cd:	-499.7638454	-506.1214875	6.357642125	0
    Cd(f):	-249.8754316	-253.0542103	3.178778764	0
    Cd(r):	-249.8884138	-253.0672772	3.178863361	0
    Cl:	1.230739614	1.238076075	-0.007336461002	0
    Cl(f):	0.6120508816	0.6190380374	-0.006987155751	0
    Cl(r):	0.618688732	0.6190380372	-0.0003493052507	0
    CmPitch:	-0.003318925174	7.560929472e-11	-0.00331892525	0
    CmRoll:	0.006491144843	0.006533443136	-4.229829332e-05	0
    CmYaw:	-0.0211891252	-0.02113357128	-5.555391514e-05	0
    Cs:	-1.804326372e-05	-1.864967068e-05	6.064069613e-07	0
    Cs(f):	-0.02119814683	-0.02114289612	-5.525071166e-05	0
    Cs(r):	0.02118010357	0.02112424645	5.585711862e-05	0

    writing force and moment coefficient files.

Courant Number mean: 0.02008829642 max: 0.4828894443
deltaT = 0.0003041695876
Time = 0.000774208827807

PIMPLE: iteration 1
DILUPBiCGStab:  Solving for Ux, Initial residual = 0.1339288858, Final residual = 1.48574611e-10, No Iterations 3
DILUPBiCGStab:  Solving for Uy, Initial residual = 0.4494030431, Final residual = 7.854270742e-11, No Iterations 3
GAMG:  Solving for p, Initial residual = 0.4470534798, Final residual = 0.003768665099, No Iterations 6
GAMG:  Solving for p, Initial residual = 0.4962551566, Final residual = 0.004022911142, No Iterations 5
time step continuity errors : sum local = 7.957882833e-06, global = -4.347484089e-08, cumulative = -9.119459173e-09
GAMG:  Solving for p, Initial residual = 0.2957491378, Final residual = 0.002089572254, No Iterations 5
GAMG:  Solving for p, Initial residual = 0.07808101395, Final residual = 8.940620066e-09, No Iterations 45
time step continuity errors : sum local = 1.013332509e-11, global = -5.290295297e-13, cumulative = -9.119988202e-09
ExecutionTime = 1.33 s  ClockTime = 2 s

forceCoeffs forceCoeffs write:
    Coefficient	Total	Pressure	Viscous	Internal
    Cd:	10.22721887	7.085848062	3.141370812	0
    Cd(f):	5.111775107	3.541067649	1.570707458	0
    Cd(r):	5.115443767	3.544780413	1.570663354	0
    Cl:	0.008030237313	0.006614417427	0.001415819886	0
    Cl(f):	0.00118226507	0.003307208679	-0.002124943609	0
    Cl(r):	0.006847972243	0.003307208748	0.003540763495	0
    CmPitch:	-0.002832853587	-3.423917631e-11	-0.002832853552	0
    CmRoll:	-0.0018343302	-0.001856381897	2.205169773e-05	0
    CmYaw:	0.01946702966	0.0195080353	-4.100563184e-05	0
    Cs:	2.471870138e-07	8.033840753e-08	1.668486062e-07	0
    Cs(f):	0.01946715326	0.01950807547	-4.092220754e-05	0
    Cs(r):	-0.01946690607	-0.01950799513	4.108905615e-05	0

    writing force and moment coefficient files.

Courant Number mean: 0.02380256241 max: 0.4267621187
deltaT = 0.0003650035052
Time = 0.00113921233297

PIMPLE: iteration 1
DILUPBiCGStab:  Solving for Ux, Initial residual = 0.05792265225, Final residual = 7.350907683e-11, No Iterations 3
DILUPBiCGStab:  Solving for Uy, Initial residual = 0.1392777265, Final residual = 6.202321781e-10, No Iterations 3
GAMG:  Solving for p, Initial residual = 0.5701343767, Final residual = 0.004985443512, No Iterations 6
GAMG:  Solving for p, Initial residual = 0.2352044304, Final residual = 0.001197979008, No Iterations 6
time step continuity errors : sum local = 8.138729221e-07, global = 7.112284056e-09, cumulative = -2.007704146e-09
GAMG:  Solving for p, Initial residual = 0.1594772039, Final residual = 0.001049365258, No Iterations 5
GAMG:  Solving for p, Initial residual = 0.03282011554, Final residual = 8.748614215e-09, No Iterations 40
time step continuity errors : sum local = 4.023991963e-12, global = 4.25397393e-13, cumulative = -2.007278749e-09
ExecutionTime = 1.61 s  ClockTime = 2 s

forceCoeffs forceCoeffs write:
    Coefficient	Total	Pressure	Viscous	Internal
    Cd:	4.43082164	1.721817856	2.709003785	0
    Cd(f):	2.214823631	0.860306844	1.354516787	0
    Cd(r):	2.21599801	0.8615110117	1.354486998	0
    Cl:	-0.02268479255	-0.02419019348	0.00150540093	0
    Cl(f):	-0.01393065202	-0.01209509673	-0.001835555289	0
    Cl(r):	-0.008754140529	-0.01209509675	0.003340956219	0
    CmPitch:	-0.002588255748	6.915177611e-12	-0.002588255754	0
    CmRoll:	-0.0005871895235	-0.0006020838872	1.489436368e-05	0
    CmYaw:	0.001549689557	0.001481369663	6.831989346e-05	0
    Cs:	2.507501212e-07	2.776397844e-07	-2.688966322e-08	0
    Cs(f):	0.001549814932	0.001481508483	6.830644863e-05	0
    Cs(r):	-0.001549564182	-0.001481230843	-6.833333829e-05	0

    writing force and moment coefficient files.

Courant Number mean: 0.02851897262 max: 0.4547139623
deltaT = 0.0004372474171
Time = 0.00157645975009

PIMPLE: iteration 1
DILUPBiCGStab:  Solving for Ux, Initial residual = 0.01158074319, Final residual = 7.734124034e-11, No Iterations 3
DILUPBiCGStab:  Solving for Uy, Initial residual = 0.0735648433, Final residual = 8.501538971e-10, No Iterations 3
GAMG:  Solving for p, Initial residual = 0.6663776974, Final residual = 0.005634033755, No Iterations 5
GAMG:  Solving for p, Initial residual = 0.1783531109, Final residual = 0.001162817616, No Iterations 5
time step continuity errors : sum local = 3.746323612e-07, global = 1.909901588e-10, cumulative = -1.81628859e-09
GAMG:  Solving for p, Initial residual = 0.1162010875, Final residual = 0.0008344984065, No Iterations 5
GAMG:  Solving for p, Initial residual = 0.01172732099, Final residual = 6.612849572e-09, No Iterations 37
time step continuity errors : sum local = 1.755054027e-12, global = 1.544155251e-13, cumulative = -1.816134175e-09
ExecutionTime = 1.87 s  ClockTime = 3 s

forceCoeffs forceCoeffs write:
    Coefficient	Total	Pressure	Viscous	Internal
    Cd:	8.155065411	5.691803546	2.463261865	0
    Cd(f):	4.077810518	2.846154348	1.231656169	0
    Cd(r):	4.077254893	2.845649198	1.231605695	0
    Cl:	-0.009875497615	-0.0107345342	0.000859036587	0
    Cl(f):	-0.007217595006	-0.005367267102	-0.001850327904	0
    Cl(r):	-0.002657902609	-0.0053672671	0.002709364491	0
    CmPitch:	-0.002279846199	-9.059679249e-13	-0.002279846198	0
    CmRoll:	0.0002778122505	0.0002525751351	2.523711543e-05	0
    CmYaw:	-0.002454319557	-0.002490545834	3.622627714e-05	0
    Cs:	2.433532153e-07	2.35235328e-07	8.117887352e-09	0
    Cs(f):	-0.002454197881	-0.002490428217	3.623033608e-05	0
    Cs(r):	0.002454441234	0.002490663452	-3.622221819e-05	0

    writing force and moment coefficient files.

Courant Number mean: 0.03407937411 max: 0.5087928973
deltaT = 0.00051459179
Time = 0.00209105154004

PIMPLE: iteration 1
DILUPBiCGStab:  Solving for Ux, Initial residual = 0.006665408238, Final residual = 8.720750581e-11, No Iterations 3
DILUPBiCGStab:  Solving for Uy, Initial residual = 0.05882258745, Final residual = 6.250503893e-11, No Iterations 3
GAMG:  Solving for p, Initial residual = 0.5096364199, Final residual = 0.003165160458, No Iterations 6
GAMG:  Solving for p, Initial residual = 0.1378222533, Final residual = 0.0008851594088, No Iterations 5
time step continuity errors : sum local = 1.559534473e-07, global = 8.027391035e-10, cumulative = -1.013395071e-09
GAMG:  Solving for p, Initial residual = 0.07816859651, Final residual = 0.0004810155817, No Iterations 6
GAMG:  Solving for p, Initial residual = 0.01305505522, Final residual = 9.395794896e-09, No Iterations 36
time step continuity errors : sum local = 1.591762938e-12, global = 1.81924715e-13, cumulative = -1.013213146e-09
ExecutionTime = 2.12 s  ClockTime = 3 s

forceCoeffs forceCoeffs write:
    Coefficient	Total	Pressure	Viscous	Internal
    Cd:	6.933146299	4.631242185	2.301904114	0
    Cd(f):	3.466626214	2.315651615	1.150974599	0
    Cd(r):	3.466520085	2.31559057	1.150929515	0
    Cl:	-0.01366022478	-0.0140673916	0.0004071668197	0
    Cl(f):	-0.008822145554	-0.007033695798	-0.001788449756	0
    Cl(r):	-0.004838079223	-0.007033695799	0.002195616576	0
    CmPitch:	-0.001992033165	2.643178676e-13	-0.001992033166	0
    CmRoll:	5.306466432e-05	3.052223418e-05	2.254243014e-05	0
    CmYaw:	-0.002140629268	-0.002142934365	2.305097077e-06	0
    Cs:	1.756973895e-07	1.597506736e-07	1.594671593e-08	0
    Cs(f):	-0.002140541419	-0.002142854489	2.313070435e-06	0
    Cs(r):	0.002140717116	0.00214301424	-2.297123719e-06	0

    writing force and moment coefficient files.

Courant Number mean: 0.04004265983 max: 0.5889099803
deltaT = 0.0005932341337
Time = 0.00268428567373

PIMPLE: iteration 1
DILUPBiCGStab:  Solving for Ux, Initial residual = 0.002819258168, Final residual = 1.217873153e-10, No Iterations 3
DILUPBiCGStab:  Solving for Uy, Initial residual = 0.02354291707, Final residual = 9.160863166e-11, No Iterations 3
GAMG:  Solving for p, Initial residual = 0.3006883884, Final residual = 0.001918587867, No Iterations 5
GAMG:  Solving for p, Initial residual = 0.03231944044, Final residual = 0.0002720868694, No Iterations 5
time step continuity errors : sum local = 4.162781134e-08, global = 7.267829608e-11, cumulative = -9.405348504e-10
GAMG:  Solving for p, Initial residual = 0.0359508662, Final residual = 0.0002747348772, No Iterations 5
GAMG:  Solving for p, Initial residual = 0.00420233383, Final residual = 7.570591751e-09, No Iterations 29
time step continuity errors : sum local = 1.130456419e-12, global = 7.300400857e-14, cumulative = -9.404618464e-10
ExecutionTime = 2.33 s  ClockTime = 3 s

forceCoeffs forceCoeffs write:
    Coefficient	Total	Pressure	Viscous	Internal
    Cd:	6.384634174	4.240953365	2.143680809	0
    Cd(f):	3.192356539	2.120499039	1.0718575	0
    Cd(r):	3.192277635	2.120454326	1.071823309	0
    Cl:	-0.0135694146	-0.01363067827	6.126366397e-05	0
    Cl(f):	-0.008545968349	-0.006815339134	-0.001730629215	0
    Cl(r):	-0.005023446256	-0.006815339134	0.001791892879	0
    CmPitch:	-0.001761261047	-8.976744696e-14	-0.001761261047	0
    CmRoll:	3.94517943e-05	2.23561791e-05	1.70956152e-05	0
    CmYaw:	-0.0003650049001	-0.0003462987136	-1.870618649e-05	0
    Cs:	1.373370978e-07	1.344461642e-07	2.890933564e-09	0
    Cs(f):	-0.0003649362315	-0.0003462314905	-1.870474103e-05	0
    Cs(r):	0.0003650735686	0.0003463659367	1.870763196e-05	0

    writing force and moment coefficient files.

Courant Number mean: 0.0461155694 max: 0.6747363165
deltaT = 0.0006723629292
Time = 0.00335664860295

PIMPLE: iteration 1
DILUPBiCGStab:  Solving for Ux, Initial residual = 0.001979678045, Final residual = 1.921668652e-10, No Iterations 3
DILUPBiCGStab:  Solving for Uy, Initial residual = 0.01609344945, Final residual = 1.234896385e-10, No Iterations 3
GAMG:  Solving for p, Initial residual = 0.2061633562, Final residual = 0.001647976544, No Iterations 4
GAMG:  Solving for p, Initial residual = 0.0235002678, Final residual = 0.000133371803, No Iterations 5
time step continuity errors : sum local = 1.967301622e-08, global = 1.101040758e-10, cumulative = -8.303577706e-10
GAMG:  Solving for p, Initial residual = 0.02304266883, Final residual = 0.0001657947536, No Iterations 5
GAMG:  Solving for p, Initial residual = 0.003497916893, Final residual = 7.892239528e-09, No Iterations 28
time step continuity errors : sum local = 1.143967804e-12, global = 8.346744972e-14, cumulative = -8.302743032e-10
ExecutionTime = 2.55 s  ClockTime = 3 s

forceCoeffs forceCoeffs write:
    Coefficient	Total	Pressure	Viscous	Internal
    Cd:	5.885285591	3.887393248	1.997892343	0
    Cd(f):	2.942739635	1.943781825	0.9989578105	0
    Cd(r):	2.942545956	1.943611423	0.9989345328	0
    Cl:	-0.01335544167	-0.01320197913	-0.0001534625395	0
    Cl(f):	-0.008263324216	-0.006600989564	-0.001662334652	0
    Cl(r):	-0.005092117451	-0.006600989563	0.001508872113	0
    CmPitch:	-0.001585603382	-2.947555578e-14	-0.001585603382	0
    CmRoll:	9.683954349e-05	8.52007015e-05	1.163884199e-05	0
    CmYaw:	-0.0002407043945	-0.0002264385514	-1.426584305e-05	0
    Cs:	1.202607077e-07	1.206590964e-07	-3.983887115e-10	0
    Cs(f):	-0.0002406442641	-0.0002263782219	-1.426604224e-05	0
    Cs(r):	0.0002407645248	0.000226498881	1.426564385e-05	0

    writing force and moment coefficient files.

Courant Number mean: 0.0522421136 max: 0.7653110513
deltaT = 0.0007514323005
Time = 0.00410808090342

PIMPLE: iteration 1
DILUPBiCGStab:  Solving for Ux, Initial residual = 0.001546442952, Final residual = 3.119761896e-10, No Iterations 3
DILUPBiCGStab:  Solving for Uy, Initial residual = 0.01278432382, Final residual = 1.85539344e-10, No Iterations 3
GAMG:  Solving for p, Initial residual = 0.1244243548, Final residual = 0.001027843287, No Iterations 4
GAMG:  Solving for p, Initial residual = 0.0182923387, Final residual = 8.652946199e-05, No Iterations 5
time step continuity errors : sum local = 1.406680453e-08, global = 9.618693433e-11, cumulative = -7.340873689e-10
GAMG:  Solving for p, Initial residual = 0.0162384708, Final residual = 0.0001353529161, No Iterations 5
GAMG:  Solving for p, Initial residual = 0.003223018805, Final residual = 8.172715334e-09, No Iterations 26
time step continuity errors : sum local = 1.311864235e-12, global = 8.625783838e-14, cumulative = -7.34001111e-10
ExecutionTime = 2.75 s  ClockTime = 3 s

forceCoeffs forceCoeffs write:
    Coefficient	Total	Pressure	Viscous	Internal
    Cd:	5.487647026	3.622056966	1.865590061	0
    Cd(f):	2.743884639	1.811081838	0.9328028007	0
    Cd(r):	2.743762388	1.810975128	0.9327872599	0
    Cl:	-0.01324367096	-0.01295700545	-0.0002866655096	0
    Cl(f):	-0.008068996999	-0.006478502723	-0.001590494276	0
    Cl(r):	-0.005174673956	-0.006478502723	0.001303828766	0
    CmPitch:	-0.001447161521	-5.06506111e-14	-0.001447161521	0
    CmRoll:	6.112540192e-05	5.335499187e-05	7.770410055e-06	0
    CmYaw:	-0.0001611758388	-0.0001523833611	-8.792477712e-06	0
    Cs:	1.133088533e-07	1.130051044e-07	3.037488287e-10	0
    Cs(f):	-0.0001611191844	-0.0001523268585	-8.792325837e-06	0
    Cs(r):	0.0001612324932	0.0001524398636	8.792629586e-06	0

    writing force and moment coefficient files.

Courant Number mean: 0.05837035112 max: 0.853114883
deltaT = 0.0007927291903
Time = 0.00490081009373

PIMPLE: iteration 1
DILUPBiCGStab:  Solving for Ux, Initial residual = 0.001291702174, Final residual = 3.513010659e-10, No Iterations 3
DILUPBiCGStab:  Solving for Uy, Initial residual = 0.0104309446, Final residual = 2.061230812e-10, No Iterations 3
GAMG:  Solving for p, Initial residual = 0.07367585122, Final residual = 0.0006347232212, No Iterations 4
GAMG:  Solving for p, Initial residual = 0.01345114785, Final residual = 7.056450795e-05, No Iterations 5
time step continuity errors : sum local = 1.20279942e-08, global = 6.545495623e-11, cumulative = -6.685461548e-10
GAMG:  Solving for p, Initial residual = 0.01107903368, Final residual = 6.073021268e-05, No Iterations 5
GAMG:  Solving for p, Initial residual = 0.002639244495, Final residual = 9.657145849e-09, No Iterations 22
time step continuity errors : sum local = 1.630991122e-12, global = -9.258503351e-14, cumulative = -6.686387398e-10
ExecutionTime = 2.94 s  ClockTime = 4 s

forceCoeffs forceCoeffs write:
    Coefficient	Total	Pressure	Viscous	Internal
    Cd:	5.164722312	3.413219379	1.751502933	0
    Cd(f):	2.582394381	1.706638127	0.8757562538	0
    Cd(r):	2.582327931	1.706581251	0.8757466793	0
    Cl:	-0.01320557746	-0.01283839547	-0.0003671819939	0
    Cl(f):	-0.007938620653	-0.006419197733	-0.00151942292	0
    Cl(r):	-0.005266956807	-0.006419197733	0.001152240926	0
    CmPitch:	-0.001335831923	-1.434261438e-14	-0.001335831923	0
    CmRoll:	3.322514265e-05	2.843791374e-05	4.787228907e-06	0
    CmYaw:	-0.0001021848538	-9.740882802e-05	-4.776025776e-06	0
    Cs:	1.066727088e-07	1.063817072e-07	2.910015425e-10	0
    Cs(f):	-0.0001021315174	-9.735563716e-05	-4.775880275e-06	0
    Cs(r):	0.0001022381901	9.746201887e-05	4.776171277e-06	0

    writing force and moment coefficient files.

Courant Number mean: 0.06156671676 max: 0.8946178663
deltaT = 0.0007974983489
Time = 0.00569830844264

PIMPLE: iteration 1
DILUPBiCGStab:  Solving for Ux, Initial residual = 0.001104771794, Final residual = 2.913240161e-10, No Iterations 3
DILUPBiCGStab:  Solving for Uy, Initial residual = 0.008297664401, Final residual = 1.761264499e-10, No Iterations 3
GAMG:  Solving for p, Initial residual = 0.04479254991, Final residual = 0.0004421305494, No Iterations 4
GAMG:  Solving for p, Initial residual = 0.01131267563, Final residual = 6.292339454e-05, No Iterations 5
time step continuity errors : sum local = 1.056209342e-08, global = 4.624436518e-11, cumulative = -6.223943746e-10
GAMG:  Solving for p, Initial residual = 0.007982000124, Final residual = 4.550094114e-05, No Iterations 5
GAMG:  Solving for p, Initial residual = 0.002307736523, Final residual = 7.983317864e-09, No Iterations 22
time step continuity errors : sum local = 1.328738012e-12, global = -8.681710729e-14, cumulative = -6.224811917e-10
ExecutionTime = 3.15 s  ClockTime = 4 s

forceCoeffs forceCoeffs write:
    Coefficient	Total	Pressure	Viscous	Internal
    Cd:	4.901223622	3.245143536	1.656080085	0
    Cd(f):	2.450624652	1.62258188	0.8280427721	0
    Cd(r):	2.45059897	1.622561656	0.8280373133	0
    Cl:	-0.01314067595	-0.01272015119	-0.0004205247584	0
    Cl(f):	-0.007816125032	-0.006360075594	-0.001456049438	0
    Cl(r):	-0.005324550914	-0.006360075594	0.00103552468	0
    CmPitch:	-0.001245787059	-2.303776574e-14	-0.001245787059	0
    CmRoll:	1.284112147e-05	1.011171525e-05	2.729406223e-06	0
    CmYaw:	-8.645799509e-05	-8.413448225e-05	-2.323512845e-06	0
    Cs:	1.010875054e-07	1.006718415e-07	4.156639605e-10	0
    Cs(f):	-8.640745134e-05	-8.408414633e-05	-2.323305013e-06	0
    Cs(r):	8.650853885e-05	8.418481817e-05	2.323720677e-06	0

    writing force and moment coefficient files.

Courant Number mean: 0.06192774319 max: 0.8924974165
deltaT = 0.0008042023436
Time = 0.00650251078625

PIMPLE: iteration 1
DILUPBiCGStab:  Solving for Ux, Initial residual = 0.0009801755577, Final residual = 2.41332109e-10, No Iterations 3
DILUPBiCGStab:  Solving for Uy, Initial residual = 0.007209066061, Final residual = 1.523199273e-10, No Iterations 3
GAMG:  Solving for p, Initial residual = 0.03041322014, Final residual = 0.0001583224725, No Iterations 5
GAMG:  Solving for p, Initial residual = 0.009814296761, Final residual = 9.685898868e-05, No Iterations 4
time step continuity errors : sum local = 1.615083113e-08, global = 5.389875654e-11, cumulative = -5.685824352e-10
GAMG:  Solving for p, Initial residual = 0.006386922978, Final residual = 3.795518551e-05, No Iterations 5
GAMG:  Solving for p, Initial residual = 0.001956613266, Final residual = 7.897573057e-09, No Iterations 22
time step continuity errors : sum local = 1.308712541e-12, global = 5.448516225e-14, cumulative = -5.6852795e-10
ExecutionTime = 3.35 s  ClockTime = 4 s

forceCoeffs forceCoeffs write:
    Coefficient	Total	Pressure	Viscous	Internal
    Cd:	4.677617048	3.10288011	1.574736939	0
    Cd(f):	2.338814527	1.551444731	0.7873697963	0
    Cd(r):	2.338802522	1.551435379	0.7873671427	0
    Cl:	-0.01313544427	-0.01267336238	-0.0004620818891	0
    Cl(f):	-0.007738047336	-0.006336681189	-0.001401366147	0
    Cl(r):	-0.005397396931	-0.006336681189	0.0009392842584	0
    CmPitch:	-0.001170325203	-1.438418475e-14	-0.001170325203	0
    CmRoll:	6.002677047e-06	4.675864273e-06	1.326812774e-06	0
    CmYaw:	-7.657071398e-05	-7.55291606e-05	-1.041553384e-06	0
    Cs:	9.612071181e-08	9.56581773e-08	4.625345143e-10	0
    Cs(f):	-7.652265362e-05	-7.548133151e-05	-1.041322117e-06	0
    Cs(r):	7.661877434e-05	7.557698968e-05	1.041784652e-06	0

    writing force and moment coefficient files.

Courant Number mean: 0.06243969402 max: 0.891158935
deltaT = 0.0008121807243
Time = 0.00731469151052

PIMPLE: iteration 1
DILUPBiCGStab:  Solving for Ux, Initial residual = 0.0008923298306, Final residual = 2.087510523e-10, No Iterations 3
DILUPBiCGStab:  Solving for Uy, Initial residual = 0.006548234736, Final residual = 1.354560515e-10, No Iterations 3
GAMG:  Solving for p, Initial residual = 0.02326501943, Final residual = 0.0001177365734, No Iterations 5
GAMG:  Solving for p, Initial residual = 0.008222675989, Final residual = 7.904236077e-05, No Iterations 4
time step continuity errors : sum local = 1.318617542e-08, global = 4.864657236e-11, cumulative = -5.198813777e-10
GAMG:  Solving for p, Initial residual = 0.005372064505, Final residual = 3.49118309e-05, No Iterations 5
GAMG:  Solving for p, Initial residual = 0.001705618685, Final residual = 8.906405922e-09, No Iterations 21
time step continuity errors : sum local = 1.478280675e-12, global = -5.010655251e-15, cumulative = -5.198863883e-10
ExecutionTime = 3.54 s  ClockTime = 4 s

forceCoeffs forceCoeffs write:
    Coefficient	Total	Pressure	Viscous	Internal
    Cd:	4.486543621	2.98216266	1.504380961	0
    Cd(f):	2.243272784	1.491081875	0.752190909	0
    Cd(r):	2.243270838	1.491080785	0.7521900522	0
    Cl:	-0.01308967786	-0.01259162706	-0.0004980507961	0
    Cl(f):	-0.007650507993	-0.006295813532	-0.001354694461	0
    Cl(r):	-0.005439169868	-0.006295813532	0.0008566436646	0
    CmPitch:	-0.001105669063	-1.862109417e-14	-0.001105669063	0
    CmRoll:	9.729992204e-07	5.446210516e-07	4.283781689e-07	0
    CmYaw:	-7.014823558e-05	-6.970552752e-05	-4.427080586e-07	0
    Cs:	9.18889799e-08	9.14151812e-08	4.737986964e-10	0
    Cs(f):	-7.010229109e-05	-6.965981993e-05	-4.424711593e-07	0
    Cs(r):	7.019418007e-05	6.975123511e-05	4.42944958e-07	0

    writing force and moment coefficient files.

Courant Number mean: 0.06305148378 max: 0.8904040025
deltaT = 0.0008209336995
Time = 0.00813562521001

PIMPLE: iteration 1
DILUPBiCGStab:  Solving for Ux, Initial residual = 0.0008271607199, Final residual = 1.881672454e-10, No Iterations 3
DILUPBiCGStab:  Solving for Uy, Initial residual = 0.006096637468, Final residual = 1.237735869e-10, No Iterations 3
GAMG:  Solving for p, Initial residual = 0.01875193404, Final residual = 0.0001836623878, No Iterations 4
GAMG:  Solving for p, Initial residual = 0.006837570579, Final residual = 3.46793312e-05, No Iterations 5
time step continuity errors : sum local = 5.827244918e-09, global = 2.958160541e-11, cumulative = -4.903047829e-10
GAMG:  Solving for p, Initial residual = 0.004599471973, Final residual = 2.985419397e-05, No Iterations 5
GAMG:  Solving for p, Initial residual = 0.001576856009, Final residual = 8.363390899e-09, No Iterations 21
time step continuity errors : sum local = 1.398788945e-12, global = -9.657560535e-14, cumulative = -4.904013585e-10
ExecutionTime = 3.73 s  ClockTime = 4 s

forceCoeffs forceCoeffs write:
    Coefficient	Total	Pressure	Viscous	Internal
    Cd:	4.321085403	2.878244157	1.442841246	0
    Cd(f):	2.160540912	1.439120438	0.7214204739	0
    Cd(r):	2.160544492	1.439123719	0.7214207722	0
    Cl:	-0.0130486477	-0.01251854769	-0.0005301000062	0
    Cl(f):	-0.007573707496	-0.006259273847	-0.001314433649	0
    Cl(r):	-0.005474940204	-0.006259273847	0.0007843336428	0
    CmPitch:	-0.001049383646	-1.809889227e-14	-0.001049383646	0
    CmRoll:	-1.789885386e-06	-1.640771663e-06	-1.491137236e-07	0
    CmYaw:	-6.259710287e-05	-6.240898315e-05	-1.881197231e-07	0
    Cs:	8.811489238e-08	8.767655947e-08	4.383329198e-10	0
    Cs(f):	-6.255304543e-05	-6.236514487e-05	-1.879005567e-07	0
    Cs(r):	6.264116032e-05	6.245282143e-05	1.883388896e-07	0

    writing force and moment coefficient files.

Courant Number mean: 0.06372432375 max: 0.8900365429
deltaT = 0.0008301235892
Time = 0.00896574879922

PIMPLE: iteration 1
DILUPBiCGStab:  Solving for Ux, Initial residual = 0.0007756886184, Final residual = 1.744729181e-10, No Iterations 3
DILUPBiCGStab:  Solving for Uy, Initial residual = 0.005731675794, Final residual = 1.157121586e-10, No Iterations 3
GAMG:  Solving for p, Initial residual = 0.01682004075, Final residual = 0.000159169294, No Iterations 4
GAMG:  Solving for p, Initial residual = 0.006102604059, Final residual = 3.027890511e-05, No Iterations 5
time step continuity errors : sum local = 5.129860926e-09, global = 2.622200676e-11, cumulative = -4.641793518e-10
GAMG:  Solving for p, Initial residual = 0.004065294094, Final residual = 2.643512585e-05, No Iterations 5
GAMG:  Solving for p, Initial residual = 0.001416540842, Final residual = 7.901917898e-09, No Iterations 21
time step continuity errors : sum local = 1.333335367e-12, global = -8.70903518e-14, cumulative = -4.642664421e-10
ExecutionTime = 3.92 s  ClockTime = 5 s

forceCoeffs forceCoeffs write:
    Coefficient	Total	Pressure	Viscous	Internal
    Cd:	4.176765672	2.788256246	1.388509426	0
    Cd(f):	2.088377267	1.394123081	0.6942541865	0
    Cd(r):	2.088388405	1.394133165	0.6942552396	0
    Cl:	-0.01302074025	-0.01246131593	-0.0005594243148	0
    Cl(f):	-0.007510102352	-0.006230657967	-0.001279444385	0
    Cl(r):	-0.005510637897	-0.006230657967	0.0007200200703	0
    CmPitch:	-0.0009997322277	-1.921706622e-14	-0.0009997322277	0
    CmRoll:	-5.568677452e-06	-5.042130111e-06	-5.265473407e-07	0
    CmYaw:	-5.571022276e-05	-5.561595849e-05	-9.42642705e-08	0
    Cs:	8.480907483e-08	8.439918206e-08	4.098927706e-10	0
    Cs(f):	-5.566781823e-05	-5.55737589e-05	-9.405932411e-08	0
    Cs(r):	5.57526273e-05	5.565815808e-05	9.446921688e-08	0

    writing force and moment coefficient files.

Courant Number mean: 0.0644318764 max: 0.8899247766
deltaT = 0.0008395217775
Time = 0.00980527057674

PIMPLE: iteration 1
DILUPBiCGStab:  Solving for Ux, Initial residual = 0.0007344110041, Final residual = 1.642302266e-10, No Iterations 3
DILUPBiCGStab:  Solving for Uy, Initial residual = 0.005422106774, Final residual = 1.097021188e-10, No Iterations 3
GAMG:  Solving for p, Initial residual = 0.01452418357, Final residual = 0.0001338279436, No Iterations 4
GAMG:  Solving for p, Initial residual = 0.005525659133, Final residual = 2.714635425e-05, No Iterations 5
time step continuity errors : sum local = 4.650353032e-09, global = 2.338117374e-11, cumulative = -4.408852684e-10
GAMG:  Solving for p, Initial residual = 0.003647562242, Final residual = 2.40601403e-05, No Iterations 5
GAMG:  Solving for p, Initial residual = 0.001280462842, Final residual = 9.748110551e-09, No Iterations 20
time step continuity errors : sum local = 1.664004705e-12, global = -1.113016048e-13, cumulative = -4.4099657e-10
ExecutionTime = 4.13 s  ClockTime = 5 s

forceCoeffs forceCoeffs write:
    Coefficient	Total	Pressure	Viscous	Internal
    Cd:	4.049641061	2.709485752	1.340155308	0
    Cd(f):	2.02481482	1.354737946	0.670076874	0
    Cd(r):	2.02482624	1.354747806	0.6700784343	0
    Cl:	-0.01292927353	-0.01234306784	-0.0005862056833	0
    Cl(f):	-0.007420088285	-0.006171533922	-0.001248554363	0
    Cl(r):	-0.005509185242	-0.006171533922	0.0006623486799	0
    CmPitch:	-0.0009554515216	-1.522667288e-14	-0.0009554515216	0
    CmRoll:	-5.709795157e-06	-4.929655913e-06	-7.801392442e-07	0
    CmYaw:	-4.988711447e-05	-4.98086009e-05	-7.851357035e-08	0
    Cs:	8.18422786e-08	8.148213828e-08	3.601403222e-10	0
    Cs(f):	-4.984619333e-05	-4.976785983e-05	-7.833350019e-08	0
    Cs(r):	4.99280356e-05	4.984934196e-05	7.869364052e-08	0

    writing force and moment coefficient files.

Courant Number mean: 0.065156238 max: 0.8899596782
deltaT = 0.0008489930705
Time = 0.0106542636472

PIMPLE: iteration 1
DILUPBiCGStab:  Solving for Ux, Initial residual = 0.000700428927, Final residual = 1.559111854e-10, No Iterations 3
DILUPBiCGStab:  Solving for Uy, Initial residual = 0.005158391507, Final residual = 1.050075504e-10, No Iterations 3
GAMG:  Solving for p, Initial residual = 0.01367824467, Final residual = 0.0001242163708, No Iterations 4
GAMG:  Solving for p, Initial residual = 0.005016260664, Final residual = 2.438023709e-05, No Iterations 5
time step continuity errors : sum local = 4.222428174e-09, global = 2.014170017e-11, cumulative = -4.208548698e-10
GAMG:  Solving for p, Initial residual = 0.003309989639, Final residual = 2.201359406e-05, No Iterations 5
GAMG:  Solving for p, Initial residual = 0.001162448637, Final residual = 8.98283268e-09, No Iterations 20
time step continuity errors : sum local = 1.550814631e-12, global = -1.050687941e-13, cumulative = -4.209599386e-10
ExecutionTime = 4.33 s  ClockTime = 5 s

forceCoeffs forceCoeffs write:
    Coefficient	Total	Pressure	Viscous	Internal
    Cd:	3.936960135	2.64014334	1.296816794	0
    Cd(f):	1.968473306	1.320065842	0.6484074645	0
    Cd(r):	1.968486828	1.320077498	0.6484093297	0
    Cl:	-0.01290256633	-0.01229210642	-0.0006104599087	0
    Cl(f):	-0.007366859241	-0.006146053209	-0.001220806032	0
    Cl(r):	-0.005535707085	-0.006146053209	0.0006103461235	0
    CmPitch:	-0.0009155760778	-1.703921914e-14	-0.0009155760778	0
    CmRoll:	-6.76083994e-06	-5.828236701e-06	-9.326032398e-07	0
    CmYaw:	-4.625531305e-05	-4.61430249e-05	-1.122881486e-07	0
    Cs:	7.922146754e-08	7.889806519e-08	3.234023466e-10	0
    Cs(f):	-4.621570231e-05	-4.610357587e-05	-1.121264474e-07	0
    Cs(r):	4.629492378e-05	4.618247393e-05	1.124498497e-07	0

    writing force and moment coefficient files.

Courant Number mean: 0.06588681061 max: 0.8900753636
deltaT = 0.0008584596256
Time = 0.0115127232728

PIMPLE: iteration 1
DILUPBiCGStab:  Solving for Ux, Initial residual = 0.0006716741214, Final residual = 1.488280235e-10, No Iterations 3
DILUPBiCGStab:  Solving for Uy, Initial residual = 0.00493246655, Final residual = 1.011980998e-10, No Iterations 3
GAMG:  Solving for p, Initial residual = 0.01265064192, Final residual = 0.0001105534457, No Iterations 4
GAMG:  Solving for p, Initial residual = 0.00461600415, Final residual = 2.228097545e-05, No Iterations 5
time step continuity errors : sum local = 3.907955457e-09, global = 1.785455832e-11, cumulative = -4.031053803e-10
GAMG:  Solving for p, Initial residual = 0.003040975947, Final residual = 2.01221695e-05, No Iterations 5
GAMG:  Solving for p, Initial residual = 0.001064378178, Final residual = 8.40017486e-09, No Iterations 20
time step continuity errors : sum local = 1.46917727e-12, global = -9.955031307e-14, cumulative = -4.032049306e-10
ExecutionTime = 4.52 s  ClockTime = 5 s

forceCoeffs forceCoeffs write:
    Coefficient	Total	Pressure	Viscous	Internal
    Cd:	3.836183735	2.578453134	1.257730601	0
    Cd(f):	1.918083975	1.289219705	0.6288642696	0
    Cd(r):	1.91809976	1.289233428	0.6288663318	0
    Cl:	-0.01284315049	-0.01221003556	-0.0006331149271	0
    Cl(f):	-0.00730097151	-0.006105017779	-0.001195953731	0
    Cl(r):	-0.005542178975	-0.006105017779	0.000562838804	0
    CmPitch:	-0.0008793962676	-1.635780346e-14	-0.0008793962676	0
    CmRoll:	-7.89270098e-06	-6.861568275e-06	-1.031132705e-06	0
    CmYaw:	-4.349169208e-05	-4.330177478e-05	-1.899173017e-07	0
    Cs:	7.686518093e-08	7.657162277e-08	2.935581545e-10	0
    Cs(f):	-4.345325949e-05	-4.326348897e-05	-1.897705226e-07	0
    Cs(r):	4.353012467e-05	4.334006059e-05	1.900640808e-07	0

    writing force and moment coefficient files.

Courant Number mean: 0.06661742699 max: 0.890239049
deltaT = 0.0008678721338
Time = 0.0123805954066

PIMPLE: iteration 1
DILUPBiCGStab:  Solving for Ux, Initial residual = 0.000646452846, Final residual = 1.425519638e-10, No Iterations 3
DILUPBiCGStab:  Solving for Uy, Initial residual = 0.004737769444, Final residual = 9.81207452e-11, No Iterations 3
GAMG:  Solving for p, Initial residual = 0.01230963098, Final residual = 0.0001076309324, No Iterations 4
GAMG:  Solving for p, Initial residual = 0.004238086916, Final residual = 2.018374009e-05, No Iterations 5
time step continuity errors : sum local = 3.581200251e-09, global = 1.555227743e-11, cumulative = -3.876526532e-10
GAMG:  Solving for p, Initial residual = 0.002803282213, Final residual = 1.863709551e-05, No Iterations 5
GAMG:  Solving for p, Initial residual = 0.0009754153502, Final residual = 7.74716051e-09, No Iterations 20
time step continuity errors : sum local = 1.370967226e-12, global = -9.418957612e-14, cumulative = -3.877468428e-10
ExecutionTime = 4.71 s  ClockTime = 5 s

forceCoeffs forceCoeffs write:
    Coefficient	Total	Pressure	Viscous	Internal
    Cd:	3.745749367	2.523468143	1.222281224	0
    Cd(f):	1.872866795	1.261727273	0.6111395219	0
    Cd(r):	1.872882573	1.26174087	0.6111417023	0
    Cl:	-0.01278446026	-0.01213043745	-0.0006540228144	0
    Cl(f):	-0.007238583803	-0.006065218723	-0.00117336508	0
    Cl(r):	-0.005545876458	-0.006065218723	0.0005193422656	0
    CmPitch:	-0.0008463536728	-1.500947551e-14	-0.0008463536728	0
    CmRoll:	-7.88891964e-06	-6.798719602e-06	-1.090200038e-06	0
    CmYaw:	-4.257160827e-05	-4.226897924e-05	-3.026290276e-07	0
    Cs:	7.476275556e-08	7.448662903e-08	2.76126529e-10	0
    Cs(f):	-4.253422689e-05	-4.223173593e-05	-3.024909644e-07	0
    Cs(r):	4.260898965e-05	4.230622256e-05	3.027670909e-07	0

    writing force and moment coefficient files.

Courant Number mean: 0.0673442499 max: 0.8904371144
deltaT = 0.0008771926818
Time = 0.0132577880884

PIMPLE: iteration 1
DILUPBiCGStab:  Solving for Ux, Initial residual = 0.0006236582528, Final residual = 1.368470087e-10, No Iterations 3
DILUPBiCGStab:  Solving for Uy, Initial residual = 0.004575095096, Final residual = 9.568799346e-11, No Iterations 3
GAMG:  Solving for p, Initial residual = 0.01192257275, Final residual = 0.0001013082672, No Iterations 4
GAMG:  Solving for p, Initial residual = 0.003907495001, Final residual = 1.844340913e-05, No Iterations 5
time step continuity errors : sum local = 3.31454469e-09, global = 1.372755853e-11, cumulative = -3.740192842e-10
GAMG:  Solving for p, Initial residual = 0.002617767281, Final residual = 1.719704699e-05, No Iterations 5
GAMG:  Solving for p, Initial residual = 0.000898497024, Final residual = 9.679359885e-09, No Iterations 19
time step continuity errors : sum local = 1.735396498e-12, global = -1.177441726e-13, cumulative = -3.741370284e-10
ExecutionTime = 4.89 s  ClockTime = 6 s

forceCoeffs forceCoeffs write:
    Coefficient	Total	Pressure	Viscous	Internal
    Cd:	3.664250049	2.474279264	1.189970785	0
    Cd(f):	1.8321163	1.237132025	0.5949842754	0
    Cd(r):	1.832133749	1.237147239	0.5949865098	0
    Cl:	-0.01273323003	-0.0120596999	-0.0006735301342	0
    Cl(f):	-0.007182618482	-0.006029849949	-0.001152768533	0
    Cl(r):	-0.00555061155	-0.006029849949	0.0004792383991	0
    CmPitch:	-0.0008160034663	-1.619461781e-14	-0.0008160034663	0
    CmRoll:	-8.72433307e-06	-7.607118704e-06	-1.117214366e-06	0
    CmYaw:	-4.112394699e-05	-4.067814298e-05	-4.458040155e-07	0
    Cs:	7.285396933e-08	7.260191881e-08	2.52050525e-10	0
    Cs(f):	-4.108752001e-05	-4.064184202e-05	-4.456779903e-07	0
    Cs(r):	4.116037398e-05	4.071444393e-05	4.459300408e-07	0

    writing force and moment coefficient files.

Courant Number mean: 0.06806429419 max: 0.8906732909
deltaT = 0.0008863782283
Time = 0.0141441663167

PIMPLE: iteration 1
DILUPBiCGStab:  Solving for Ux, Initial residual = 0.0006038678695, Final residual = 1.316282668e-10, No Iterations 3
DILUPBiCGStab:  Solving for Uy, Initial residual = 0.00443903693, Final residual = 9.381382842e-11, No Iterations 3
GAMG:  Solving for p, Initial residual = 0.01181532927, Final residual = 9.82800886e-05, No Iterations 4
GAMG:  Solving for p, Initial residual = 0.003613144869, Final residual = 1.684380683e-05, No Iterations 5
time step continuity errors : sum local = 3.061859824e-09, global = 1.209502461e-11, cumulative = -3.620420038e-10
GAMG:  Solving for p, Initial residual = 0.002436418829, Final residual = 1.593215293e-05, No Iterations 5
GAMG:  Solving for p, Initial residual = 0.000828648448, Final residual = 9.013821571e-09, No Iterations 19
time step continuity errors : sum local = 1.634952198e-12, global = -1.114114581e-13, cumulative = -3.621534152e-10
ExecutionTime = 5.07 s  ClockTime = 6 s

forceCoeffs forceCoeffs write:
    Coefficient	Total	Pressure	Viscous	Internal
    Cd:	3.590553963	2.430162852	1.160391112	0
    Cd(f):	1.795267502	1.215073076	0.5801944255	0
    Cd(r):	1.795286461	1.215089775	0.5801966862	0
    Cl:	-0.01267606648	-0.0119842161	-0.0006918503794	0
    Cl(f):	-0.007126008226	-0.005992108052	-0.001133900174	0
    Cl(r):	-0.005550058258	-0.005992108052	0.0004420497943	0
    CmPitch:	-0.0007879749839	-1.655575175e-14	-0.0007879749839	0
    CmRoll:	-9.479705388e-06	-8.349368689e-06	-1.130336698e-06	0
    CmYaw:	-4.097968789e-05	-4.037605391e-05	-6.036339791e-07	0
    Cs:	7.113868807e-08	7.08961501e-08	2.425379678e-10	0
    Cs(f):	-4.094411854e-05	-4.034060583e-05	-6.035127102e-07	0
    Cs(r):	4.101525723e-05	4.041150198e-05	6.037552481e-07	0

    writing force and moment coefficient files.

Courant Number mean: 0.06877421843 max: 0.8909502167
deltaT = 0.0008953815719
Time = 0.0150395478886

PIMPLE: iteration 1
DILUPBiCGStab:  Solving for Ux, Initial residual = 0.0005856364957, Final residual = 1.268778053e-10, No Iterations 3
DILUPBiCGStab:  Solving for Uy, Initial residual = 0.004329345976, Final residual = 9.218124538e-11, No Iterations 3
GAMG:  Solving for p, Initial residual = 0.01185124614, Final residual = 9.578389546e-05, No Iterations 4
GAMG:  Solving for p, Initial residual = 0.00333650895, Final residual = 1.55174403e-05, No Iterations 5
time step continuity errors : sum local = 2.8562988e-09, global = 1.078254133e-11, cumulative = -3.513708739e-10
GAMG:  Solving for p, Initial residual = 0.002304339389, Final residual = 1.478703651e-05, No Iterations 5
GAMG:  Solving for p, Initial residual = 0.0007667920152, Final residual = 8.421230994e-09, No Iterations 19
time step continuity errors : sum local = 1.546975814e-12, global = -1.054470275e-13, cumulative = -3.514763209e-10
ExecutionTime = 5.29 s  ClockTime = 6 s

forceCoeffs forceCoeffs write:
    Coefficient	Total	Pressure	Viscous	Internal
    Cd:	3.523669375	2.390465142	1.133204233	0
    Cd(f):	1.761826731	1.195225738	0.5666009929	0
    Cd(r):	1.761842645	1.195239405	0.56660324	0
    Cl:	-0.01262054242	-0.01191148133	-0.0007090610907	0
    Cl(f):	-0.007072239474	-0.005955740664	-0.00111649881	0
    Cl(r):	-0.005548302945	-0.005955740664	0.0004074377193	0
    CmPitch:	-0.0007619682646	-1.620786495e-14	-0.0007619682646	0
    CmRoll:	-7.956868762e-06	-6.833330601e-06	-1.123538161e-06	0
    CmYaw:	-4.019181623e-05	-3.941523447e-05	-7.765817531e-07	0
    Cs:	6.958915577e-08	6.934409549e-08	2.450602806e-10	0
    Cs(f):	-4.015702165e-05	-3.938056242e-05	-7.764592229e-07	0
    Cs(r):	4.02266108e-05	3.944990652e-05	7.767042832e-07	0

    writing force and moment coefficient files.

Courant Number mean: 0.06947025989 max: 0.8912619018
deltaT = 0.0009041600601
Time = 0.0159437079487

PIMPLE: iteration 1
DILUPBiCGStab:  Solving for Ux, Initial residual = 0.000569026182, Final residual = 1.225543166e-10, No Iterations 3
DILUPBiCGStab:  Solving for Uy, Initial residual = 0.004233939738, Final residual = 9.080045088e-11, No Iterations 3
GAMG:  Solving for p, Initial residual = 0.0119773425, Final residual = 9.19609078e-05, No Iterations 4
GAMG:  Solving for p, Initial residual = 0.003100580471, Final residual = 1.420299757e-05, No Iterations 5
time step continuity errors : sum local = 2.643565576e-09, global = 9.587149453e-12, cumulative = -3.418891715e-10
GAMG:  Solving for p, Initial residual = 0.002169613002, Final residual = 1.37142018e-05, No Iterations 5
GAMG:  Solving for p, Initial residual = 0.0007097062944, Final residual = 7.843814666e-09, No Iterations 19
time step continuity errors : sum local = 1.457249764e-12, global = -9.955702591e-14, cumulative = -3.419887285e-10
ExecutionTime = 5.49 s  ClockTime = 6 s

forceCoeffs forceCoeffs write:
    Coefficient	Total	Pressure	Viscous	Internal
    Cd:	3.462980685	2.354852569	1.108128116	0
    Cd(f):	1.731480968	1.177418005	0.5540629631	0
    Cd(r):	1.731499717	1.177434565	0.5540651527	0
    Cl:	-0.01254441052	-0.01181920442	-0.0007252061017	0
    Cl(f):	-0.007009931583	-0.00590960221	-0.001100329373	0
    Cl(r):	-0.005534478939	-0.00590960221	0.0003751232712	0
    CmPitch:	-0.000737726322	-1.596283995e-14	-0.000737726322	0
    CmRoll:	-9.374828857e-06	-8.280001622e-06	-1.094827235e-06	0
    CmYaw:	-4.057759243e-05	-3.962657964e-05	-9.51012799e-07	0
    Cs:	6.815630544e-08	6.793627287e-08	2.200325675e-10	0
    Cs(f):	-4.054351428e-05	-3.95926115e-05	-9.509027827e-07	0
    Cs(r):	4.061167059e-05	3.966054777e-05	9.511228153e-07	0

    writing force and moment coefficient files.

Courant Number mean: 0.07014899848 max: 0.8915989688
deltaT = 0.0009126794473
Time = 0.016856387396

PIMPLE: iteration 1
DILUPBiCGStab:  Solving for Ux, Initial residual = 0.0005534589792, Final residual = 1.185454692e-10, No Iterations 3
DILUPBiCGStab:  Solving for Uy, Initial residual = 0.004146718804, Final residual = 8.952110691e-11, No Iterations 3
GAMG:  Solving for p, Initial residual = 0.01225575068, Final residual = 9.118776165e-05, No Iterations 4
GAMG:  Solving for p, Initial residual = 0.002870591868, Final residual = 1.304257586e-05, No Iterations 5
time step continuity errors : sum local = 2.456434221e-09, global = 8.682095406e-12, cumulative = -3.333066331e-10
GAMG:  Solving for p, Initial residual = 0.002057025435, Final residual = 1.280158016e-05, No Iterations 5
GAMG:  Solving for p, Initial residual = 0.0006583801573, Final residual = 9.900709847e-09, No Iterations 18
time step continuity errors : sum local = 1.861554683e-12, global = -1.240032572e-13, cumulative = -3.334306364e-10
ExecutionTime = 5.68 s  ClockTime = 6 s

forceCoeffs forceCoeffs write:
    Coefficient	Total	Pressure	Viscous	Internal
    Cd:	3.407768343	2.322841613	1.08492673	0
    Cd(f):	1.703875061	1.161412771	0.5424622901	0
    Cd(r):	1.703893282	1.161428842	0.5424644401	0
    Cl:	-0.01249798746	-0.011757633	-0.0007403544544	0
    Cl(f):	-0.006964023846	-0.005878816501	-0.001085207345	0
    Cl(r):	-0.005533963611	-0.005878816501	0.0003448528904	0
    CmPitch:	-0.0007150301176	-1.641751912e-14	-0.0007150301175	0
    CmRoll:	-9.110691751e-06	-8.035722253e-06	-1.074969498e-06	0
    CmYaw:	-4.131558756e-05	-4.017376212e-05	-1.141825441e-06	0
    Cs:	6.685838195e-08	6.665024319e-08	2.081387568e-10	0
    Cs(f):	-4.128215837e-05	-4.0140437e-05	-1.141721371e-06	0
    Cs(r):	4.134901675e-05	4.020708724e-05	1.14192951e-06	0

    writing force and moment coefficient files.

Courant Number mean: 0.07080768369 max: 0.8919548795
deltaT = 0.0009209114962
Time = 0.0177772988922

PIMPLE: iteration 1
DILUPBiCGStab:  Solving for Ux, Initial residual = 0.0005391116095, Final residual = 1.147885233e-10, No Iterations 3
DILUPBiCGStab:  Solving for Uy, Initial residual = 0.00406586686, Final residual = 8.82908392e-11, No Iterations 3
GAMG:  Solving for p, Initial residual = 0.01244249045, Final residual = 8.785374411e-05, No Iterations 4
GAMG:  Solving for p, Initial residual = 0.002678560403, Final residual = 1.20176329e-05, No Iterations 5
time step continuity errors : sum local = 2.286684441e-09, global = 7.757279611e-12, cumulative = -3.256733568e-10
GAMG:  Solving for p, Initial residual = 0.001950786555, Final residual = 1.187975251e-05, No Iterations 5
GAMG:  Solving for p, Initial residual = 0.0006119415881, Final residual = 9.260668847e-09, No Iterations 18
time step continuity errors : sum local = 1.759383423e-12, global = -1.17545124e-13, cumulative = -3.257909019e-10
ExecutionTime = 5.87 s  ClockTime = 6 s

forceCoeffs forceCoeffs write:
    Coefficient	Total	Pressure	Viscous	Internal
    Cd:	3.357428327	2.294029731	1.063398595	0
    Cd(f):	1.678704978	1.147006726	0.531698252	0
    Cd(r):	1.678723349	1.147023005	0.5317003434	0
    Cl:	-0.01242043725	-0.01166568454	-0.0007547527033	0
    Cl(f):	-0.006903918022	-0.005832842272	-0.00107107575	0
    Cl(r):	-0.005516519225	-0.005832842272	0.0003163230468	0
    CmPitch:	-0.0006936993985	-1.674071252e-14	-0.0006936993985	0
    CmRoll:	-9.185188744e-06	-8.139530144e-06	-1.0456586e-06	0
    CmYaw:	-4.102212456e-05	-3.968223755e-05	-1.339887012e-06	0
    Cs:	6.567312449e-08	6.547357868e-08	1.995458139e-10	0
    Cs(f):	-4.0989288e-05	-3.964950076e-05	-1.339787239e-06	0
    Cs(r):	4.105496113e-05	3.971497434e-05	1.339986785e-06	0

    writing force and moment coefficient files.

Courant Number mean: 0.07144416446 max: 0.8923200734
deltaT = 0.0009288375004
Time = 0.0187061363926

PIMPLE: iteration 1
DILUPBiCGStab:  Solving for Ux, Initial residual = 0.0005253463706, Final residual = 1.112486808e-10, No Iterations 3
DILUPBiCGStab:  Solving for Uy, Initial residual = 0.004002694691, Final residual = 8.709372387e-11, No Iterations 3
GAMG:  Solving for p, Initial residual = 0.01302542871, Final residual = 8.631465505e-05, No Iterations 4
GAMG:  Solving for p, Initial residual = 0.002490529426, Final residual = 1.110363154e-05, No Iterations 5
time step continuity errors : sum local = 2.135881466e-09, global = 7.124761572e-12, cumulative = -3.186661403e-10
GAMG:  Solving for p, Initial residual = 0.001869001874, Final residual = 1.115999576e-05, No Iterations 5
GAMG:  Solving for p, Initial residual = 0.000568702327, Final residual = 8.681254008e-09, No Iterations 18
time step continuity errors : sum local = 1.667591582e-12, global = -1.120750636e-13, cumulative = -3.187782154e-10
ExecutionTime = 6.05 s  ClockTime = 7 s

forceCoeffs forceCoeffs write:
    Coefficient	Total	Pressure	Viscous	Internal
    Cd:	3.311512159	2.268141103	1.043371057	0
    Cd(f):	1.655747105	1.134062591	0.5216845148	0
    Cd(r):	1.655765054	1.134078512	0.5216865418	0
    Cl:	-0.01235656674	-0.01158836398	-0.0007682027602	0
    Cl(f):	-0.006851867392	-0.005794181989	-0.001057685402	0
    Cl(r):	-0.005504699347	-0.005794181989	0.0002894826422	0
    CmPitch:	-0.0006735840223	-1.61913163e-14	-0.0006735840223	0
    CmRoll:	-8.97417802e-06	-7.96068978e-06	-1.013488239e-06	0
    CmYaw:	-4.203942651e-05	-4.050499504e-05	-1.534431472e-06	0
    Cs:	6.458543685e-08	6.439449091e-08	1.909459394e-10	0
    Cs(f):	-4.200713379e-05	-4.047279779e-05	-1.534335999e-06	0
    Cs(r):	4.207171923e-05	4.053719228e-05	1.534526945e-06	0

    writing force and moment coefficient files.

Courant Number mean: 0.07205693632 max: 0.8926854931
deltaT = 0.0009364482305
Time = 0.0196425846232

PIMPLE: iteration 1
DILUPBiCGStab:  Solving for Ux, Initial residual = 0.0005125192595, Final residual = 1.079134948e-10, No Iterations 3
DILUPBiCGStab:  Solving for Uy, Initial residual = 0.003952821814, Final residual = 8.589968107e-11, No Iterations 3
GAMG:  Solving for p, Initial residual = 0.01330619798, Final residual = 8.405793207e-05, No Iterations 4
GAMG:  Solving for p, Initial residual = 0.002323944314, Final residual = 2.321575393e-05, No Iterations 4
time step continuity errors : sum local = 4.508000509e-09, global = 8.568838113e-12, cumulative = -3.102093773e-10
GAMG:  Solving for p, Initial residual = 0.001781903844, Final residual = 1.055947489e-05, No Iterations 5
GAMG:  Solving for p, Initial residual = 0.0004997970266, Final residual = 9.545806309e-09, No Iterations 17
time step continuity errors : sum local = 1.851096011e-12, global = -1.085212632e-13, cumulative = -3.103178985e-10
ExecutionTime = 6.24 s  ClockTime = 7 s

forceCoeffs forceCoeffs write:
    Coefficient	Total	Pressure	Viscous	Internal
    Cd:	3.269527863	2.244831754	1.024696109	0
    Cd(f):	1.634755173	1.122408095	0.5123470784	0
    Cd(r):	1.63477269	1.122423659	0.5123490303	0
    Cl:	-0.0122877286	-0.01150681254	-0.0007809160594	0
    Cl(f):	-0.006798422429	-0.005753406271	-0.001045016158	0
    Cl(r):	-0.005489306172	-0.005753406271	0.000264100099	0
    CmPitch:	-0.0006545581287	-1.624323587e-14	-0.0006545581287	0
    CmRoll:	-8.758376265e-06	-7.782439037e-06	-9.759372285e-07	0
    CmYaw:	-4.144762866e-05	-3.971508882e-05	-1.732539838e-06	0
    Cs:	6.357782658e-08	6.339786952e-08	1.799570598e-10	0
    Cs(f):	-4.141583975e-05	-3.968338989e-05	-1.732449859e-06	0
    Cs(r):	4.147941758e-05	3.974678776e-05	1.732629816e-06	0

    writing force and moment coefficient files.

Courant Number mean: 0.07264528085 max: 0.8930457221
deltaT = 0.0009437404901
Time = 0.0205863251133

PIMPLE: iteration 1
DILUPBiCGStab:  Solving for Ux, Initial residual = 0.0005003566669, Final residual = 1.048528784e-10, No Iterations 3
DILUPBiCGStab:  Solving for Uy, Initial residual = 0.003905342874, Final residual = 8.465654484e-11, No Iterations 3
GAMG:  Solving for p, Initial residual = 0.01390910589, Final residual = 8.114077101e-05, No Iterations 4
GAMG:  Solving for p, Initial residual = 0.002166832052, Final residual = 9.504664134e-06, No Iterations 5
time step continuity errors : sum local = 1.864766688e-09, global = 5.543610576e-12, cumulative = -3.047742879e-10
GAMG:  Solving for p, Initial residual = 0.001717920991, Final residual = 9.884410537e-06, No Iterations 5
GAMG:  Solving for p, Initial residual = 0.0004902900158, Final residual = 7.428293422e-09, No Iterations 18
time step continuity errors : sum local = 1.45554446e-12, global = -9.62947839e-14, cumulative = -3.048705827e-10
ExecutionTime = 6.44 s  ClockTime = 7 s

forceCoeffs forceCoeffs write:
    Coefficient	Total	Pressure	Viscous	Internal
    Cd:	3.231236929	2.223992766	1.007244163	0
    Cd(f):	1.615609554	1.111988412	0.503621142	0
    Cd(r):	1.615627375	1.112004355	0.5036230205	0
    Cl:	-0.01224068754	-0.01144765459	-0.000793032945	0
    Cl(f):	-0.006756858894	-0.005723827297	-0.001033031597	0
    Cl(r):	-0.005483828646	-0.005723827297	0.0002399986517	0
    CmPitch:	-0.0006365151243	-1.786818518e-14	-0.0006365151243	0
    CmRoll:	-8.910628516e-06	-7.971416578e-06	-9.392119375e-07	0
    CmYaw:	-4.248256319e-05	-4.056212858e-05	-1.920434606e-06	0
    Cs:	6.266033011e-08	6.248915781e-08	1.711723041e-10	0
    Cs(f):	-4.245123302e-05	-4.0530884e-05	-1.92034902e-06	0
    Cs(r):	4.251389335e-05	4.059337316e-05	1.920520192e-06	0

    writing force and moment coefficient files.

Courant Number mean: 0.07320891092 max: 0.8933963099
deltaT = 0.0009507163077
Time = 0.021537041421

PIMPLE: iteration 1
DILUPBiCGStab:  Solving for Ux, Initial residual = 0.0004889114594, Final residual = 1.023464732e-10, No Iterations 3
DILUPBiCGStab:  Solving for Uy, Initial residual = 0.003865748792, Final residual = 9.942214127e-10, No Iterations 3
GAMG:  Solving for p, Initial residual = 0.0140339443, Final residual = 7.915978671e-05, No Iterations 4
GAMG:  Solving for p, Initial residual = 0.002030879859, Final residual = 2.003640319e-05, No Iterations 4
time step continuity errors : sum local = 3.965161413e-09, global = 7.118643328e-12, cumulative = -2.977519394e-10
GAMG:  Solving for p, Initial residual = 0.001640966671, Final residual = 9.269498505e-06, No Iterations 5
GAMG:  Solving for p, Initial residual = 0.0004334797379, Final residual = 8.612071289e-09, No Iterations 17
time step continuity errors : sum local = 1.702278279e-12, global = -1.056776103e-13, cumulative = -2.97857617e-10
ExecutionTime = 6.62 s  ClockTime = 7 s

forceCoeffs forceCoeffs write:
    Coefficient	Total	Pressure	Viscous	Internal
    Cd:	3.196134463	2.205229851	0.9909046112	0
    Cd(f):	1.59805846	1.10260706	0.4954514008	0
    Cd(r):	1.598076002	1.102622792	0.4954532104	0
    Cl:	-0.01215457967	-0.01134999029	-0.0008045893765	0
    Cl(f):	-0.006696642839	-0.005674995145	-0.001021647694	0
    Cl(r):	-0.005457936827	-0.005674995145	0.0002170583176	0
    CmPitch:	-0.0006193530059	-1.733373454e-14	-0.0006193530059	0
    CmRoll:	-8.770978028e-06	-7.866157037e-06	-9.04820991e-07	0
    CmYaw:	-4.184764224e-05	-3.973614305e-05	-2.111499187e-06	0
    Cs:	6.180238863e-08	6.164046539e-08	1.619232336e-10	0
    Cs(f):	-4.181674104e-05	-3.970532282e-05	-2.111418226e-06	0
    Cs(r):	4.187854343e-05	3.976696328e-05	2.111580149e-06	0

    writing force and moment coefficient files.

Courant Number mean: 0.07374801872 max: 0.8937326344
deltaT = 0.0009573832755
Time = 0.0224944246966

PIMPLE: iteration 1
DILUPBiCGStab:  Solving for Ux, Initial residual = 0.0004782525929, Final residual = 1.00384306e-10, No Iterations 3
DILUPBiCGStab:  Solving for Uy, Initial residual = 0.003826143231, Final residual = 9.742948928e-10, No Iterations 3
GAMG:  Solving for p, Initial residual = 0.01441930796, Final residual = 7.694575667e-05, No Iterations 4
GAMG:  Solving for p, Initial residual = 0.001883170591, Final residual = 1.877862395e-05, No Iterations 4
time step continuity errors : sum local = 3.750913489e-09, global = 6.55435276e-12, cumulative = -2.913032642e-10
GAMG:  Solving for p, Initial residual = 0.001595681706, Final residual = 9.016777408e-06, No Iterations 5
GAMG:  Solving for p, Initial residual = 0.000402222285, Final residual = 7.624416157e-09, No Iterations 17
time step continuity errors : sum local = 1.521248997e-12, global = -9.60544268e-14, cumulative = -2.913993187e-10
ExecutionTime = 6.79 s  ClockTime = 7 s

forceCoeffs forceCoeffs write:
    Coefficient	Total	Pressure	Viscous	Internal
    Cd:	3.164081157	2.188503297	0.9755778598	0
    Cd(f):	1.58203199	1.094243929	0.4877880614	0
    Cd(r):	1.582049166	1.094259368	0.4877897984	0
    Cl:	-0.01207963924	-0.01126440255	-0.0008152366845	0
    Cl(f):	-0.006642804623	-0.005632201276	-0.001010603347	0
    Cl(r):	-0.005436834614	-0.005632201276	0.0001953666624	0
    CmPitch:	-0.0006029850047	-1.771540507e-14	-0.0006029850047	0
    CmRoll:	-8.588208631e-06	-7.71971624e-06	-8.684923903e-07	0
    CmYaw:	-4.281969191e-05	-4.052910298e-05	-2.290588927e-06	0
    Cs:	6.101274619e-08	6.086280459e-08	1.499415977e-10	0
    Cs(f):	-4.278918553e-05	-4.049867158e-05	-2.290513956e-06	0
    Cs(r):	4.285019828e-05	4.055953438e-05	2.290663898e-06	0

    writing force and moment coefficient files.

Courant Number mean: 0.07426319891 max: 0.8940515439
deltaT = 0.0009637531011
Time = 0.0234581777976

PIMPLE: iteration 1
DILUPBiCGStab:  Solving for Ux, Initial residual = 0.0004682657342, Final residual = 9.870829952e-11, No Iterations 3
DILUPBiCGStab:  Solving for Uy, Initial residual = 0.003794617935, Final residual = 9.546124385e-10, No Iterations 3
GAMG:  Solving for p, Initial residual = 0.01453553709, Final residual = 7.494158065e-05, No Iterations 4
GAMG:  Solving for p, Initial residual = 0.001758216485, Final residual = 1.729354616e-05, No Iterations 4
time step continuity errors : sum local = 3.480935512e-09, global = 5.240316172e-12, cumulative = -2.861590025e-10
GAMG:  Solving for p, Initial residual = 0.001521617951, Final residual = 8.4142351e-06, No Iterations 5
GAMG:  Solving for p, Initial residual = 0.0003738688895, Final residual = 7.384454073e-09, No Iterations 17
time step continuity errors : sum local = 1.484842519e-12, global = -9.837617552e-14, cumulative = -2.862573787e-10
ExecutionTime = 6.96 s  ClockTime = 8 s

forceCoeffs forceCoeffs write:
    Coefficient	Total	Pressure	Viscous	Internal
    Cd:	3.134824362	2.173646059	0.9611783026	0
    Cd(f):	1.567403277	1.086814961	0.480588316	0
    Cd(r):	1.567421085	1.086831098	0.4805899866	0
    Cl:	-0.01200646602	-0.01118121247	-0.0008252535532	0
    Cl(f):	-0.006590569943	-0.005590606235	-0.0009999637078	0
    Cl(r):	-0.00541589608	-0.005590606235	0.0001747101545	0
    CmPitch:	-0.0005873369312	-1.836810709e-14	-0.0005873369312	0
    CmRoll:	-8.903925458e-06	-8.068591994e-06	-8.353334641e-07	0
    CmYaw:	-4.21318058e-05	-3.966081733e-05	-2.470988467e-06	0
    Cs:	6.028945418e-08	6.014454667e-08	1.44907515e-10	0
    Cs(f):	-4.210166107e-05	-3.963074506e-05	-2.470916013e-06	0
    Cs(r):	4.216195052e-05	3.96908896e-05	2.471060921e-06	0

    writing force and moment coefficient files.

Courant Number mean: 0.07475542939 max: 0.8943526165
deltaT = 0.0009698387135
Time = 0.0244280165111

PIMPLE: iteration 1
DILUPBiCGStab:  Solving for Ux, Initial residual = 0.000459006828, Final residual = 9.724960568e-11, No Iterations 3
DILUPBiCGStab:  Solving for Uy, Initial residual = 0.003764100159, Final residual = 9.348828765e-10, No Iterations 3
GAMG:  Solving for p, Initial residual = 0.01470193831, Final residual = 7.252516805e-05, No Iterations 4
GAMG:  Solving for p, Initial residual = 0.001650847132, Final residual = 1.635685709e-05, No Iterations 4
time step continuity errors : sum local = 3.320930012e-09, global = 5.289891507e-12, cumulative = -2.809674872e-10
GAMG:  Solving for p, Initial residual = 0.00147712514, Final residual = 8.016368669e-06, No Iterations 5
GAMG:  Solving for p, Initial residual = 0.0003487321109, Final residual = 9.275350677e-09, No Iterations 16
time step continuity errors : sum local = 1.881373179e-12, global = -1.126567704e-13, cumulative = -2.810801439e-10
ExecutionTime = 7.13 s  ClockTime = 8 s

forceCoeffs forceCoeffs write:
    Coefficient	Total	Pressure	Viscous	Internal
    Cd:	3.108122662	2.160492599	0.9476300634	0
    Cd(f):	1.554053644	1.080239415	0.4738142296	0
    Cd(r):	1.554069018	1.080253184	0.4738158338	0
    Cl:	-0.01194138248	-0.01110664256	-0.0008347399229	0
    Cl(f):	-0.006543036738	-0.005553321278	-0.0009897154597	0
    Cl(r):	-0.005398345742	-0.005553321278	0.0001549755368	0
    CmPitch:	-0.0005723454983	-1.82863923e-14	-0.0005723454983	0
    CmRoll:	-7.686908305e-06	-6.884827155e-06	-8.020811501e-07	0
    CmYaw:	-4.282414937e-05	-4.018798685e-05	-2.636162521e-06	0
    Cs:	5.960838571e-08	5.947380283e-08	1.345828827e-10	0
    Cs(f):	-4.279434518e-05	-4.015824995e-05	-2.636095229e-06	0
    Cs(r):	4.285395357e-05	4.021772375e-05	2.636229812e-06	0

    writing force and moment coefficient files.

Courant Number mean: 0.07522573121 max: 0.894638049
deltaT = 0.0009756513745
Time = 0.0254036678856

PIMPLE: iteration 1
DILUPBiCGStab:  Solving for Ux, Initial residual = 0.0004501764181, Final residual = 9.591466759e-11, No Iterations 3
DILUPBiCGStab:  Solving for Uy, Initial residual = 0.003745146386, Final residual = 9.163496962e-10, No Iterations 3
GAMG:  Solving for p, Initial residual = 0.01474107456, Final residual = 7.168526548e-05, No Iterations 4
GAMG:  Solving for p, Initial residual = 0.001530764199, Final residual = 1.494270882e-05, No Iterations 4
time step continuity errors : sum local = 3.055412028e-09, global = 3.547724131e-12, cumulative = -2.775324198e-10
GAMG:  Solving for p, Initial residual = 0.001414473236, Final residual = 7.727607892e-06, No Iterations 5
GAMG:  Solving for p, Initial residual = 0.0003247745247, Final residual = 9.023963794e-09, No Iterations 16
time step continuity errors : sum local = 1.843500957e-12, global = -1.180295926e-13, cumulative = -2.776504494e-10
ExecutionTime = 7.3 s  ClockTime = 8 s

forceCoeffs forceCoeffs write:
    Coefficient	Total	Pressure	Viscous	Internal
    Cd:	3.083694494	2.14882961	0.9348648836	0
    Cd(f):	1.54183878	1.074407099	0.4674316806	0
    Cd(r):	1.541855714	1.074422511	0.467433203	0
    Cl:	-0.0118057627	-0.01096229475	-0.0008434679475	0
    Cl(f):	-0.00646083434	-0.005481147374	-0.0009796869656	0
    Cl(r):	-0.005344928356	-0.005481147374	0.0001362190181	0
    CmPitch:	-0.0005579529919	-1.786049266e-14	-0.0005579529919	0
    CmRoll:	-8.466760568e-06	-7.705545528e-06	-7.612150396e-07	0
    CmYaw:	-4.253586917e-05	-3.973528468e-05	-2.80058449e-06	0
    Cs:	5.898922547e-08	5.885962141e-08	1.296040605e-10	0
    Cs(f):	-4.250637456e-05	-3.970585487e-05	-2.800519688e-06	0
    Cs(r):	4.256536378e-05	3.976471449e-05	2.800649292e-06	0

    writing force and moment coefficient files.

Courant Number mean: 0.07567502674 max: 0.8949062177
deltaT = 0.0009812047561
Time = 0.0263848726417

PIMPLE: iteration 1
DILUPBiCGStab:  Solving for Ux, Initial residual = 0.0004419407799, Final residual = 9.463100364e-11, No Iterations 3
DILUPBiCGStab:  Solving for Uy, Initial residual = 0.00372346075, Final residual = 9.005269722e-10, No Iterations 3
GAMG:  Solving for p, Initial residual = 0.01474361343, Final residual = 0.0001437295145, No Iterations 3
GAMG:  Solving for p, Initial residual = 0.001110429801, Final residual = 6.313922739e-06, No Iterations 5
time step continuity errors : sum local = 1.301577704e-09, global = -1.013466762e-11, cumulative = -2.87785117e-10
GAMG:  Solving for p, Initial residual = 0.001619339885, Final residual = 8.14896448e-06, No Iterations 5
GAMG:  Solving for p, Initial residual = 0.0003893103721, Final residual = 8.19675803e-09, No Iterations 17
time step continuity errors : sum local = 1.687491826e-12, global = -1.118569335e-13, cumulative = -2.87896974e-10
ExecutionTime = 7.48 s  ClockTime = 8 s

forceCoeffs forceCoeffs write:
    Coefficient	Total	Pressure	Viscous	Internal
    Cd:	3.061484823	2.138663888	0.9228209351	0
    Cd(f):	1.530734863	1.069325125	0.4614097374	0
    Cd(r):	1.53074996	1.069338763	0.4614111977	0
    Cl:	-0.01182056785	-0.01096904385	-0.0008515239919	0
    Cl(f):	-0.00645439043	-0.005484521927	-0.0009698685029	0
    Cl(r):	-0.005366177416	-0.005484521927	0.0001183445109	0
    CmPitch:	-0.0005441065069	-2.059572215e-14	-0.0005441065069	0
    CmRoll:	-7.548839909e-06	-6.818718807e-06	-7.301211019e-07	0
    CmYaw:	-4.372361348e-05	-4.077209232e-05	-2.951521156e-06	0
    Cs:	5.842243502e-08	5.82968108e-08	1.256242265e-10	0
    Cs(f):	-4.369440226e-05	-4.074294392e-05	-2.951458344e-06	0
    Cs(r):	4.37528247e-05	4.080124073e-05	2.951583969e-06	0

    writing force and moment coefficient files.

Courant Number mean: 0.07610430268 max: 0.8951609976
deltaT = 0.0009865088882
Time = 0.02737138153

PIMPLE: iteration 1
DILUPBiCGStab:  Solving for Ux, Initial residual = 0.0004340770835, Final residual = 9.344548829e-11, No Iterations 3
DILUPBiCGStab:  Solving for Uy, Initial residual = 0.003711185279, Final residual = 8.904813095e-10, No Iterations 3
GAMG:  Solving for p, Initial residual = 0.01459101102, Final residual = 0.0001369928471, No Iterations 3
GAMG:  Solving for p, Initial residual = 0.001022258434, Final residual = 5.79349455e-06, No Iterations 5
time step continuity errors : sum local = 1.201891113e-09, global = -9.876950953e-12, cumulative = -2.977739249e-10
GAMG:  Solving for p, Initial residual = 0.001545543816, Final residual = 7.309279052e-06, No Iterations 5
GAMG:  Solving for p, Initial residual = 0.0003630070132, Final residual = 7.431945158e-09, No Iterations 17
time step continuity errors : sum local = 1.539856238e-12, global = -9.736423626e-14, cumulative = -2.978712892e-10
ExecutionTime = 7.68 s  ClockTime = 8 s

forceCoeffs forceCoeffs write:
    Coefficient	Total	Pressure	Viscous	Internal
    Cd:	3.041348809	2.129902562	0.9114462471	0
    Cd(f):	1.520666356	1.064943926	0.45572243	0
    Cd(r):	1.520682453	1.064958636	0.4557238171	0
    Cl:	-0.0116887128	-0.01082879486	-0.0008599179352	0
    Cl(f):	-0.006375131704	-0.005414397431	-0.0009607342736	0
    Cl(r):	-0.005313581092	-0.005414397431	0.0001008163385	0
    CmPitch:	-0.0005307753061	-1.936811886e-14	-0.0005307753061	0
    CmRoll:	-8.048155998e-06	-7.354617497e-06	-6.935385018e-07	0
    CmYaw:	-4.385859734e-05	-4.074875605e-05	-3.109841293e-06	0
    Cs:	5.788209563e-08	5.776109068e-08	1.210049572e-10	0
    Cs(f):	-4.382965629e-05	-4.07198755e-05	-3.10978079e-06	0
    Cs(r):	4.388753839e-05	4.077763659e-05	3.109901795e-06	0

    writing force and moment coefficient files.

Courant Number mean: 0.07651433163 max: 0.8954035437
deltaT = 0.0009915730239
Time = 0.0283629545539

PIMPLE: iteration 1
DILUPBiCGStab:  Solving for Ux, Initial residual = 0.0004268990686, Final residual = 9.236467045e-11, No Iterations 3
DILUPBiCGStab:  Solving for Uy, Initial residual = 0.003688998379, Final residual = 8.872317209e-10, No Iterations 3
GAMG:  Solving for p, Initial residual = 0.01452106048, Final residual = 0.0001339288272, No Iterations 3
GAMG:  Solving for p, Initial residual = 0.0009671651117, Final residual = 5.674674181e-06, No Iterations 5
time step continuity errors : sum local = 1.185461366e-09, global = -9.231164576e-12, cumulative = -3.071024537e-10
GAMG:  Solving for p, Initial residual = 0.001528238301, Final residual = 7.144491009e-06, No Iterations 5
GAMG:  Solving for p, Initial residual = 0.0003468541434, Final residual = 9.712093635e-09, No Iterations 16
time step continuity errors : sum local = 2.026431277e-12, global = -1.33736858e-13, cumulative = -3.072361906e-10
ExecutionTime = 7.86 s  ClockTime = 8 s

forceCoeffs forceCoeffs write:
    Coefficient	Total	Pressure	Viscous	Internal
    Cd:	3.023114062	2.122421137	0.9006929249	0
    Cd(f):	1.511549404	1.061203608	0.4503457962	0
    Cd(r):	1.511564658	1.061217529	0.4503471287	0
    Cl:	-0.01163461978	-0.01076746094	-0.000867158834	0
    Cl(f):	-0.006335217443	-0.005383730472	-0.0009514869716	0
    Cl(r):	-0.005299402334	-0.005383730472	8.432813758e-05	0
    CmPitch:	-0.0005179075546	-2.057558184e-14	-0.0005179075546	0
    CmRoll:	-7.626659954e-06	-6.960436042e-06	-6.662239117e-07	0
    CmYaw:	-4.384321141e-05	-4.058721494e-05	-3.255996465e-06	0
    Cs:	5.73747076e-08	5.725989684e-08	1.148107535e-10	0
    Cs(f):	-4.381452405e-05	-4.055858499e-05	-3.25593906e-06	0
    Cs(r):	4.387189876e-05	4.061584489e-05	3.25605387e-06	0

    writing force and moment coefficient files.

Courant Number mean: 0.07690586893 max: 0.8956358936
deltaT = 0.0009964045968
Time = 0.0293593591507

PIMPLE: iteration 1
DILUPBiCGStab:  Solving for Ux, Initial residual = 0.0004200292684, Final residual = 9.141948286e-11, No Iterations 3
DILUPBiCGStab:  Solving for Uy, Initial residual = 0.003680859881, Final residual = 8.880797603e-10, No Iterations 3
GAMG:  Solving for p, Initial residual = 0.01454603387, Final residual = 0.0001326945109, No Iterations 3
GAMG:  Solving for p, Initial residual = 0.0009366669174, Final residual = 5.492299344e-06, No Iterations 5
time step continuity errors : sum local = 1.153481124e-09, global = -8.963261746e-12, cumulative = -3.161994523e-10
GAMG:  Solving for p, Initial residual = 0.001486874046, Final residual = 7.07531212e-06, No Iterations 5
GAMG:  Solving for p, Initial residual = 0.0003269959851, Final residual = 9.514450514e-09, No Iterations 16
time step continuity errors : sum local = 1.995912424e-12, global = -1.32940963e-13, cumulative = -3.163323933e-10
ExecutionTime = 8.03 s  ClockTime = 9 s

forceCoeffs forceCoeffs write:
    Coefficient	Total	Pressure	Viscous	Internal
    Cd:	3.006551208	2.116034383	0.8905168256	0
    Cd(f):	1.503267531	1.058009757	0.4452577743	0
    Cd(r):	1.503283677	1.058024626	0.4452590513	0
    Cl:	-0.01149722189	-0.01062329736	-0.0008739245268	0
    Cl(f):	-0.006254085165	-0.005311648681	-0.0009424364843	0
    Cl(r):	-0.005243136723	-0.005311648681	6.851195752e-05	0
    CmPitch:	-0.0005054742209	-1.989464181e-14	-0.0005054742209	0
    CmRoll:	-8.073176954e-06	-7.434675003e-06	-6.385019504e-07	0
    CmYaw:	-4.428022178e-05	-4.088612732e-05	-3.39409446e-06	0
    Cs:	5.69139629e-08	5.680649199e-08	1.074709093e-10	0
    Cs(f):	-4.425176479e-05	-4.085772407e-05	-3.394040724e-06	0
    Cs(r):	4.430867876e-05	4.091453056e-05	3.394148195e-06	0

    writing force and moment coefficient files.

Courant Number mean: 0.07727940185 max: 0.8958513471
deltaT = 0.001001018908
Time = 0.0303603780586

PIMPLE: iteration 1
DILUPBiCGStab:  Solving for Ux, Initial residual = 0.000413584882, Final residual = 9.048177867e-11, No Iterations 3
DILUPBiCGStab:  Solving for Uy, Initial residual = 0.003666444614, Final residual = 8.913994262e-10, No Iterations 3
GAMG:  Solving for p, Initial residual = 0.01421889493, Final residual = 0.0001283089376, No Iterations 3
GAMG:  Solving for p, Initial residual = 0.0008588772263, Final residual = 5.20414807e-06, No Iterations 5
time step continuity errors : sum local = 1.099893525e-09, global = -8.201803765e-12, cumulative = -3.245341971e-10
GAMG:  Solving for p, Initial residual = 0.001446918255, Final residual = 6.678933153e-06, No Iterations 5
GAMG:  Solving for p, Initial residual = 0.0003101377473, Final residual = 8.72945693e-09, No Iterations 16
time step continuity errors : sum local = 1.843054168e-12, global = -1.239804191e-13, cumulative = -3.246581775e-10
ExecutionTime = 8.19 s  ClockTime = 9 s

forceCoeffs forceCoeffs write:
    Coefficient	Total	Pressure	Viscous	Internal
    Cd:	2.991610018	2.11073289	0.8808771283	0
    Cd(f):	1.495797504	1.055359557	0.4404379474	0
    Cd(r):	1.495812514	1.055373333	0.4404391809	0
    Cl:	-0.01143192324	-0.01055222751	-0.0008796957281	0
    Cl(f):	-0.00620940293	-0.005276113756	-0.0009332891744	0
    Cl(r):	-0.005222520309	-0.005276113756	5.359344629e-05	0
    CmPitch:	-0.0004934413104	-1.97856927e-14	-0.0004934413103	0
    CmRoll:	-7.504787578e-06	-6.888032787e-06	-6.167547914e-07	0
    CmYaw:	-4.389769125e-05	-4.037112007e-05	-3.526571181e-06	0
    Cs:	5.648005324e-08	5.637831844e-08	1.01734794e-10	0
    Cs(f):	-4.386945123e-05	-4.034293091e-05	-3.526520313e-06	0
    Cs(r):	4.392593128e-05	4.039930923e-05	3.526622048e-06	0

    writing force and moment coefficient files.

Courant Number mean: 0.07763617142 max: 0.8960615098
deltaT = 0.001005418721
Time = 0.0313657967797

PIMPLE: iteration 1
DILUPBiCGStab:  Solving for Ux, Initial residual = 0.000407404143, Final residual = 8.966945519e-11, No Iterations 3
DILUPBiCGStab:  Solving for Uy, Initial residual = 0.003661296635, Final residual = 8.959128687e-10, No Iterations 3
GAMG:  Solving for p, Initial residual = 0.01402398687, Final residual = 0.000123905262, No Iterations 3
GAMG:  Solving for p, Initial residual = 0.0008242805677, Final residual = 5.081424531e-06, No Iterations 5
time step continuity errors : sum local = 1.079242253e-09, global = -7.486962201e-12, cumulative = -3.321451397e-10
GAMG:  Solving for p, Initial residual = 0.001379810736, Final residual = 1.366780567e-05, No Iterations 4
GAMG:  Solving for p, Initial residual = 0.0002637945167, Final residual = 8.158363644e-09, No Iterations 17
time step continuity errors : sum local = 1.730954265e-12, global = -1.156347688e-13, cumulative = -3.322607744e-10
ExecutionTime = 8.39 s  ClockTime = 9 s

forceCoeffs forceCoeffs write:
    Coefficient	Total	Pressure	Viscous	Internal
    Cd:	2.978122338	2.106384516	0.8717378228	0
    Cd(f):	1.489053119	1.053184801	0.4358683185	0
    Cd(r):	1.489069219	1.053199715	0.4358695044	0
    Cl:	-0.01135164255	-0.01046622013	-0.0008854224191	0
    Cl(f):	-0.006157606962	-0.005233110065	-0.000924496897	0
    Cl(r):	-0.005194035587	-0.005233110065	3.907447796e-05	0
    CmPitch:	-0.0004817856875	-2.067057573e-14	-0.0004817856875	0
    CmRoll:	-8.049795657e-06	-7.456864317e-06	-5.929313403e-07	0
    CmYaw:	-4.299962752e-05	-3.935892467e-05	-3.640702844e-06	0
    Cs:	5.609033203e-08	5.597642334e-08	1.139086934e-10	0
    Cs(f):	-4.297158235e-05	-3.933093646e-05	-3.64064589e-06	0
    Cs(r):	4.302767268e-05	3.938691289e-05	3.640759799e-06	0

    writing force and moment coefficient files.

Courant Number mean: 0.07797636399 max: 0.8962633701
deltaT = 0.001009610433
Time = 0.0323754072125

PIMPLE: iteration 1
DILUPBiCGStab:  Solving for Ux, Initial residual = 0.0004015392637, Final residual = 8.890145089e-11, No Iterations 3
DILUPBiCGStab:  Solving for Uy, Initial residual = 0.003646792924, Final residual = 9.007105696e-10, No Iterations 3
GAMG:  Solving for p, Initial residual = 0.01377862245, Final residual = 0.0001244779648, No Iterations 3
GAMG:  Solving for p, Initial residual = 0.0008041170412, Final residual = 4.943047745e-06, No Iterations 5
time step continuity errors : sum local = 1.055803851e-09, global = -6.956643456e-12, cumulative = -3.392174179e-10
GAMG:  Solving for p, Initial residual = 0.001357046754, Final residual = 1.301098577e-05, No Iterations 4
GAMG:  Solving for p, Initial residual = 0.0002508661461, Final residual = 7.768397252e-09, No Iterations 17
time step continuity errors : sum local = 1.657731413e-12, global = -1.106704785e-13, cumulative = -3.393280884e-10
ExecutionTime = 8.61 s  ClockTime = 9 s

forceCoeffs forceCoeffs write:
    Coefficient	Total	Pressure	Viscous	Internal
    Cd:	2.966064012	2.102998219	0.8630657927	0
    Cd(f):	1.483025763	1.051493433	0.4315323292	0
    Cd(r):	1.483038249	1.051504785	0.4315334636	0
    Cl:	-0.01124776136	-0.01035703579	-0.0008907255715	0
    Cl(f):	-0.006094356148	-0.005178517896	-0.0009158382518	0
    Cl(r):	-0.005153405216	-0.005178517896	2.51126803e-05	0
    CmPitch:	-0.0004704754661	-1.926925229e-14	-0.0004704754661	0
    CmRoll:	-6.243171767e-06	-5.675979488e-06	-5.671922783e-07	0
    CmYaw:	-4.318498706e-05	-3.944857089e-05	-3.736416162e-06	0
    Cs:	5.569394985e-08	5.560673932e-08	8.721052827e-11	0
    Cs(f):	-4.315714008e-05	-3.942076752e-05	-3.736372557e-06	0
    Cs(r):	4.321283403e-05	3.947637426e-05	3.736459767e-06	0

    writing force and moment coefficient files.

Courant Number mean: 0.07830048579 max: 0.8964557853
deltaT = 0.001013602014
Time = 0.0333890092266

PIMPLE: iteration 1
DILUPBiCGStab:  Solving for Ux, Initial residual = 0.0003961539466, Final residual = 8.829494654e-11, No Iterations 3
DILUPBiCGStab:  Solving for Uy, Initial residual = 0.003642524056, Final residual = 9.076298241e-10, No Iterations 3
GAMG:  Solving for p, Initial residual = 0.01339762956, Final residual = 0.0001191214847, No Iterations 3
GAMG:  Solving for p, Initial residual = 0.0007875672866, Final residual = 4.852247831e-06, No Iterations 5
time step continuity errors : sum local = 1.040917003e-09, global = -5.815138044e-12, cumulative = -3.451432264e-10
GAMG:  Solving for p, Initial residual = 0.001279651213, Final residual = 1.229394188e-05, No Iterations 4
GAMG:  Solving for p, Initial residual = 0.0002362445141, Final residual = 7.326043769e-09, No Iterations 17
time step continuity errors : sum local = 1.570206517e-12, global = -1.026572165e-13, cumulative = -3.452458836e-10
ExecutionTime = 8.8 s  ClockTime = 9 s

forceCoeffs forceCoeffs write:
    Coefficient	Total	Pressure	Viscous	Internal
    Cd:	2.955534253	2.100701546	0.8548327065	0
    Cd(f):	1.477759939	1.050344117	0.4274158226	0
    Cd(r):	1.477774313	1.050357429	0.427416884	0
    Cl:	-0.01116404925	-0.01026862664	-0.0008954226135	0
    Cl(f):	-0.006041516327	-0.00513431332	-0.0009072030065	0
    Cl(r):	-0.005122532927	-0.00513431332	1.178039301e-05	0
    CmPitch:	-0.0004594916998	-1.945268557e-14	-0.0004594916997	0
    CmRoll:	-7.187132329e-06	-6.65644757e-06	-5.306847591e-07	0
    CmYaw:	-4.330469762e-05	-3.946283245e-05	-3.841865175e-06	0
    Cs:	5.533330187e-08	5.525229658e-08	8.100529494e-11	0
    Cs(f):	-4.327703097e-05	-3.94352063e-05	-3.841824673e-06	0
    Cs(r):	4.333236427e-05	3.94904586e-05	3.841905678e-06	0

    writing force and moment coefficient files.

Courant Number mean: 0.07860921988 max: 0.8966393536
deltaT = 0.001017401042
Time = 0.0344064102685

PIMPLE: iteration 1
DILUPBiCGStab:  Solving for Ux, Initial residual = 0.0003909780879, Final residual = 8.784191077e-11, No Iterations 3
[...]
ExecutionTime = 274.74 s  ClockTime = 308 s

forceCoeffs forceCoeffs write:
    Coefficient	Total	Pressure	Viscous	Internal
    Cd:	3.100940431	2.449455539	0.6514848912	0
    Cd(f):	1.550469607	1.224727416	0.3257421905	0
    Cd(r):	1.550470824	1.224728123	0.3257427008	0
    Cl:	-7.150169667e-06	-9.27018681e-06	2.120017143e-06	0
    Cl(f):	1.290527144e-06	-4.635093408e-06	5.925620551e-06	0
    Cl(r):	-8.440696811e-06	-4.635093403e-06	-3.805603408e-06	0
    CmPitch:	4.865611977e-06	-2.434878994e-15	4.86561198e-06	0
    CmRoll:	-6.084651426e-07	-3.533244122e-07	-2.551407304e-07	0
    CmYaw:	-5.619206507e-05	-4.889961172e-05	-7.292453347e-06	0
    Cs:	6.792621468e-08	6.792740982e-08	-1.195132702e-12	0
    Cs(f):	-5.615810196e-05	-4.886564802e-05	-7.292453945e-06	0
    Cs(r):	5.622602818e-05	4.893357543e-05	7.29245275e-06	0

    writing force and moment coefficient files.

Courant Number mean: 0.0886662958 max: 0.90000161
deltaT = 0.001136681757
Time = 1.989220090078845

PIMPLE: iteration 1
DILUPBiCGStab:  Solving for Ux, Initial residual = 9.286461287e-06, Final residual = 2.034110986e-10, No Iterations 1
DILUPBiCGStab:  Solving for Uy, Initial residual = 2.453296051e-05, Final residual = 9.581224457e-11, No Iterations 2
GAMG:  Solving for p, Initial residual = 0.0007380201378, Final residual = 4.646916052e-06, No Iterations 3
GAMG:  Solving for p, Initial residual = 2.469275265e-05, Final residual = 2.337689618e-07, No Iterations 5
time step continuity errors : sum local = 5.874611531e-11, global = -2.968793256e-12, cumulative = -1.281568421e-09
GAMG:  Solving for p, Initial residual = 2.642644321e-05, Final residual = 2.275134757e-07, No Iterations 4
GAMG:  Solving for p, Initial residual = 1.992371869e-06, Final residual = 8.867925787e-09, No Iterations 8
time step continuity errors : sum local = 2.228522329e-12, global = -2.732685678e-13, cumulative = -1.28184169e-09
ExecutionTime = 274.88 s  ClockTime = 308 s

forceCoeffs forceCoeffs write:
    Coefficient	Total	Pressure	Viscous	Internal
    Cd:	3.100937033	2.44945214	0.6514848923	0
    Cd(f):	1.550469265	1.22472708	0.3257421854	0
    Cd(r):	1.550467768	1.224725061	0.3257427069	0
    Cl:	-5.893967693e-06	-7.697670232e-06	1.803702539e-06	0
    Cl(f):	1.886022671e-06	-3.848835119e-06	5.73485779e-06	0
    Cl(r):	-7.779990364e-06	-3.848835113e-06	-3.931155251e-06	0
    CmPitch:	4.833006518e-06	-2.902904905e-15	4.83300652e-06	0
    CmRoll:	7.485278176e-07	1.009284606e-06	-2.607567887e-07	0
    CmYaw:	-5.537840906e-05	-4.808069109e-05	-7.297717964e-06	0
    Cs:	6.791002967e-08	6.793047156e-08	-2.044189204e-11	0
    Cs(f):	-5.534445404e-05	-4.804672586e-05	-7.297728185e-06	0
    Cs(r):	5.541236407e-05	4.811465633e-05	7.297707743e-06	0

    writing force and moment coefficient files.

Courant Number mean: 0.08866611403 max: 0.8999990116
deltaT = 0.001136683006
Time = 1.990356773084545

PIMPLE: iteration 1
DILUPBiCGStab:  Solving for Ux, Initial residual = 9.266486773e-06, Final residual = 2.018988402e-10, No Iterations 1
DILUPBiCGStab:  Solving for Uy, Initial residual = 2.453459126e-05, Final residual = 9.071828485e-11, No Iterations 2
GAMG:  Solving for p, Initial residual = 0.0007384577522, Final residual = 4.661581085e-06, No Iterations 3
GAMG:  Solving for p, Initial residual = 2.486705137e-05, Final residual = 2.379760538e-07, No Iterations 5
time step continuity errors : sum local = 5.980283901e-11, global = -2.209873335e-12, cumulative = -1.284051563e-09
GAMG:  Solving for p, Initial residual = 2.645144766e-05, Final residual = 2.308364835e-07, No Iterations 4
GAMG:  Solving for p, Initial residual = 1.916792794e-06, Final residual = 6.164974313e-09, No Iterations 9
time step continuity errors : sum local = 1.549242811e-12, global = -1.960929634e-13, cumulative = -1.284247656e-09
ExecutionTime = 275.05 s  ClockTime = 308 s

forceCoeffs forceCoeffs write:
    Coefficient	Total	Pressure	Viscous	Internal
    Cd:	3.100940094	2.449455229	0.6514848644	0
    Cd(f):	1.550469427	1.22472725	0.3257421769	0
    Cd(r):	1.550470667	1.224727979	0.3257426874	0
    Cl:	-1.394347989e-05	-1.545764002e-05	1.514160128e-06	0
    Cl(f):	-2.168586803e-06	-7.728820013e-06	5.56023321e-06	0
    Cl(r):	-1.177489309e-05	-7.728820008e-06	-4.046073082e-06	0
    CmPitch:	4.803153143e-06	-2.440374973e-15	4.803153146e-06	0
    CmRoll:	-6.200354507e-07	-3.647797739e-07	-2.552556768e-07	0
    CmYaw:	-5.620044828e-05	-4.890803748e-05	-7.292410799e-06	0
    Cs:	6.792960146e-08	6.79307615e-08	-1.160035127e-12	0
    Cs(f):	-5.616648348e-05	-4.88740721e-05	-7.29241138e-06	0
    Cs(r):	5.623441308e-05	4.894200286e-05	7.292410219e-06	0

    writing force and moment coefficient files.

Courant Number mean: 0.08866618758 max: 0.9000016123
deltaT = 0.001136680969
Time = 1.991493454053945

PIMPLE: iteration 1
DILUPBiCGStab:  Solving for Ux, Initial residual = 9.246141718e-06, Final residual = 2.025724913e-10, No Iterations 1
DILUPBiCGStab:  Solving for Uy, Initial residual = 2.446170817e-05, Final residual = 9.602246928e-11, No Iterations 2
GAMG:  Solving for p, Initial residual = 0.0007376905306, Final residual = 4.646398194e-06, No Iterations 3
GAMG:  Solving for p, Initial residual = 2.469294952e-05, Final residual = 2.338147065e-07, No Iterations 5
time step continuity errors : sum local = 5.875872492e-11, global = -2.963183928e-12, cumulative = -1.28721084e-09
GAMG:  Solving for p, Initial residual = 2.641851987e-05, Final residual = 2.273521594e-07, No Iterations 4
GAMG:  Solving for p, Initial residual = 1.990598736e-06, Final residual = 8.852099081e-09, No Iterations 8
time step continuity errors : sum local = 2.224587188e-12, global = -2.727675173e-13, cumulative = -1.287483608e-09
ExecutionTime = 275.19 s  ClockTime = 308 s

forceCoeffs forceCoeffs write:
    Coefficient	Total	Pressure	Viscous	Internal
    Cd:	3.100936676	2.44945181	0.6514848658	0
    Cd(f):	1.5504691	1.224726928	0.3257421719	0
    Cd(r):	1.550467576	1.224724883	0.3257426939	0
    Cl:	-1.268904667e-05	-1.387881178e-05	1.189765111e-06	0
    Cl(f):	-1.572915361e-06	-6.939405895e-06	5.366490534e-06	0
    Cl(r):	-1.111613131e-05	-6.939405889e-06	-4.176725423e-06	0
    CmPitch:	4.771607976e-06	-2.907235068e-15	4.771607979e-06	0
    CmRoll:	7.616110688e-07	1.022569617e-06	-2.60958548e-07	0
    CmYaw:	-5.536901114e-05	-4.807124405e-05	-7.297767093e-06	0
    Cs:	6.791336604e-08	6.793381572e-08	-2.044967705e-11	0
    Cs(f):	-5.533505446e-05	-4.803727714e-05	-7.297777317e-06	0
    Cs(r):	5.540296782e-05	4.810521095e-05	7.297756868e-06	0

    writing force and moment coefficient files.

Courant Number mean: 0.0886660061 max: 0.899999017
deltaT = 0.001136682211
Time = 1.992630136264861

PIMPLE: iteration 1
DILUPBiCGStab:  Solving for Ux, Initial residual = 9.226087096e-06, Final residual = 2.010253168e-10, No Iterations 1
DILUPBiCGStab:  Solving for Uy, Initial residual = 2.447029899e-05, Final residual = 9.096180809e-11, No Iterations 2
GAMG:  Solving for p, Initial residual = 0.0007380567994, Final residual = 4.659904602e-06, No Iterations 3
GAMG:  Solving for p, Initial residual = 2.486394033e-05, Final residual = 2.382209371e-07, No Iterations 5
time step continuity errors : sum local = 5.986550992e-11, global = -2.199256035e-12, cumulative = -1.289682864e-09
GAMG:  Solving for p, Initial residual = 2.6446244e-05, Final residual = 2.308251075e-07, No Iterations 4
GAMG:  Solving for p, Initial residual = 1.917133281e-06, Final residual = 6.189886383e-09, No Iterations 9
time step continuity errors : sum local = 1.555532491e-12, global = -1.954693802e-13, cumulative = -1.289878333e-09
ExecutionTime = 275.32 s  ClockTime = 308 s

forceCoeffs forceCoeffs write:
    Coefficient	Total	Pressure	Viscous	Internal
    Cd:	3.100939761	2.449454923	0.6514848379	0
    Cd(f):	1.550469249	1.224727085	0.3257421636	0
    Cd(r):	1.550470512	1.224727837	0.3257426742	0
    Cl:	-2.06991107e-05	-2.159168242e-05	8.925717155e-07	0
    Cl(f):	-5.606700539e-06	-1.079584121e-05	5.189140672e-06	0
    Cl(r):	-1.509241016e-05	-1.079584121e-05	-4.296568957e-06	0
    CmPitch:	4.742854812e-06	-2.435372025e-15	4.742854814e-06	0
    CmRoll:	-6.314355701e-07	-3.761315851e-07	-2.55303985e-07	0
    CmYaw:	-5.621088208e-05	-4.891849626e-05	-7.292385817e-06	0
    Cs:	6.793296733e-08	6.793409775e-08	-1.130419108e-12	0
    Cs(f):	-5.61769156e-05	-4.888452921e-05	-7.292386382e-06	0
    Cs(r):	5.624484856e-05	4.895246331e-05	7.292385252e-06	0

    writing force and moment coefficient files.

Courant Number mean: 0.08866607926 max: 0.900001614
deltaT = 0.001136680172
Time = 1.993766816437294

PIMPLE: iteration 1
DILUPBiCGStab:  Solving for Ux, Initial residual = 9.205789287e-06, Final residual = 2.017321136e-10, No Iterations 1
DILUPBiCGStab:  Solving for Uy, Initial residual = 2.439149785e-05, Final residual = 9.620698199e-11, No Iterations 2
GAMG:  Solving for p, Initial residual = 0.000737348961, Final residual = 4.644716316e-06, No Iterations 3
GAMG:  Solving for p, Initial residual = 2.469098423e-05, Final residual = 2.338576025e-07, No Iterations 5
time step continuity errors : sum local = 5.877061766e-11, global = -2.958361122e-12, cumulative = -1.292836694e-09
GAMG:  Solving for p, Initial residual = 2.641048527e-05, Final residual = 2.272126764e-07, No Iterations 4
GAMG:  Solving for p, Initial residual = 1.989071451e-06, Final residual = 8.843036932e-09, No Iterations 8
time step continuity errors : sum local = 2.222351662e-12, global = -2.724698136e-13, cumulative = -1.293109164e-09
ExecutionTime = 275.46 s  ClockTime = 308 s

forceCoeffs forceCoeffs write:
    Coefficient	Total	Pressure	Viscous	Internal
    Cd:	3.10093632	2.449451481	0.6514848396	0
    Cd(f):	1.550468938	1.224726779	0.3257421587	0
    Cd(r):	1.550467383	1.224724702	0.3257426809	0
    Cl:	-1.942325854e-05	-1.998460774e-05	5.613492018e-07	0
    Cl(f):	-4.99919175e-06	-9.992303873e-06	4.993112123e-06	0
    Cl(r):	-1.442406679e-05	-9.992303867e-06	-4.431762921e-06	0
    CmPitch:	4.712437519e-06	-2.916961613e-15	4.712437522e-06	0
    CmRoll:	7.773158497e-07	1.038416223e-06	-2.611003728e-07	0
    CmYaw:	-5.536657438e-05	-4.806868817e-05	-7.297886215e-06	0
    Cs:	6.791665946e-08	6.793714621e-08	-2.048675168e-11	0
    Cs(f):	-5.533261605e-05	-4.803471959e-05	-7.297896458e-06	0
    Cs(r):	5.540053271e-05	4.810265674e-05	7.297875972e-06	0

    writing force and moment coefficient files.

Courant Number mean: 0.08866589746 max: 0.8999990218
deltaT = 0.001136681408
Time = 1.994903497845158

PIMPLE: iteration 1
DILUPBiCGStab:  Solving for Ux, Initial residual = 9.186047739e-06, Final residual = 2.001363344e-10, No Iterations 1
DILUPBiCGStab:  Solving for Uy, Initial residual = 2.44015409e-05, Final residual = 9.1182132e-11, No Iterations 2
GAMG:  Solving for p, Initial residual = 0.0007377783189, Final residual = 4.658220629e-06, No Iterations 3
GAMG:  Solving for p, Initial residual = 2.486031427e-05, Final residual = 2.381609741e-07, No Iterations 5
time step continuity errors : sum local = 5.985157336e-11, global = -2.192458502e-12, cumulative = -1.295301623e-09
GAMG:  Solving for p, Initial residual = 2.644516473e-05, Final residual = 2.308075305e-07, No Iterations 4
GAMG:  Solving for p, Initial residual = 1.917487889e-06, Final residual = 6.267739965e-09, No Iterations 9
time step continuity errors : sum local = 1.575127095e-12, global = -1.951494856e-13, cumulative = -1.295496772e-09
ExecutionTime = 275.58 s  ClockTime = 309 s

forceCoeffs forceCoeffs write:
    Coefficient	Total	Pressure	Viscous	Internal
    Cd:	3.100939432	2.44945462	0.6514848117	0
    Cd(f):	1.550469071	1.224726921	0.3257421506	0
    Cd(r):	1.55047036	1.224727699	0.3257426611	0
    Cl:	-2.747882834e-05	-2.773625337e-05	2.574250218e-07	0
    Cl(f):	-9.054559207e-06	-1.386812669e-05	4.813567478e-06	0
    Cl(r):	-1.842426914e-05	-1.386812668e-05	-4.556142457e-06	0
    CmPitch:	4.684854965e-06	-2.445736347e-15	4.684854967e-06	0
    CmRoll:	-6.446647236e-07	-3.893796107e-07	-2.552851129e-07	0
    CmYaw:	-5.621790392e-05	-4.892542366e-05	-7.292480262e-06	0
    Cs:	6.793632391e-08	6.793741884e-08	-1.094932621e-12	0
    Cs(f):	-5.618393576e-05	-4.889145495e-05	-7.292480809e-06	0
    Cs(r):	5.625187208e-05	4.895939237e-05	7.292479714e-06	0

    writing force and moment coefficient files.

Courant Number mean: 0.08866597001 max: 0.9000016154
deltaT = 0.001136679368
Time = 1.996040177212861

PIMPLE: iteration 1
DILUPBiCGStab:  Solving for Ux, Initial residual = 9.166043617e-06, Final residual = 2.008817059e-10, No Iterations 1
DILUPBiCGStab:  Solving for Uy, Initial residual = 2.432075907e-05, Final residual = 9.63891037e-11, No Iterations 2
GAMG:  Solving for p, Initial residual = 0.0007370826499, Final residual = 4.643596162e-06, No Iterations 3
GAMG:  Solving for p, Initial residual = 2.469026435e-05, Final residual = 2.339234261e-07, No Iterations 5
time step continuity errors : sum local = 5.878827107e-11, global = -2.94923351e-12, cumulative = -1.298446006e-09
GAMG:  Solving for p, Initial residual = 2.640205838e-05, Final residual = 2.270757643e-07, No Iterations 4
GAMG:  Solving for p, Initial residual = 1.98725091e-06, Final residual = 8.826828244e-09, No Iterations 8
time step continuity errors : sum local = 2.218320264e-12, global = -2.719254159e-13, cumulative = -1.298717931e-09
ExecutionTime = 275.74 s  ClockTime = 309 s

forceCoeffs forceCoeffs write:
    Coefficient	Total	Pressure	Viscous	Internal
    Cd:	3.100935966	2.449451152	0.6514848137	0
    Cd(f):	1.550468769	1.224726624	0.3257421456	0
    Cd(r):	1.550467196	1.224724528	0.3257426681	0
    Cl:	-2.620939946e-05	-2.612825162e-05	-8.114784088e-08	0
    Cl(f):	-8.449056688e-06	-1.306412581e-05	4.615069124e-06	0
    Cl(r):	-1.776034277e-05	-1.306412581e-05	-4.696216965e-06	0
    CmPitch:	4.655643041e-06	-2.928055805e-15	4.655643044e-06	0
    CmRoll:	7.864831741e-07	1.047732054e-06	-2.612488797e-07	0
    CmYaw:	-5.535590466e-05	-4.805790198e-05	-7.298002674e-06	0
    Cs:	6.791995648e-08	6.794046199e-08	-2.050551527e-11	0
    Cs(f):	-5.532194468e-05	-4.802393175e-05	-7.298012927e-06	0
    Cs(r):	5.538986463e-05	4.809187221e-05	7.297992421e-06	0

    writing force and moment coefficient files.

Courant Number mean: 0.08866578823 max: 0.8999990262
deltaT = 0.001136680598
Time = 1.997176857810511

PIMPLE: iteration 1
DILUPBiCGStab:  Solving for Ux, Initial residual = 9.146335738e-06, Final residual = 1.992695309e-10, No Iterations 1
DILUPBiCGStab:  Solving for Uy, Initial residual = 2.433424959e-05, Final residual = 9.141260645e-11, No Iterations 2
GAMG:  Solving for p, Initial residual = 0.0007374125671, Final residual = 4.655869842e-06, No Iterations 3
GAMG:  Solving for p, Initial residual = 2.485521965e-05, Final residual = 2.383372401e-07, No Iterations 5
time step continuity errors : sum local = 5.989699878e-11, global = -2.179714379e-12, cumulative = -1.300897645e-09
GAMG:  Solving for p, Initial residual = 2.643813763e-05, Final residual = 2.307622123e-07, No Iterations 4
GAMG:  Solving for p, Initial residual = 1.917279537e-06, Final residual = 6.337579541e-09, No Iterations 9
time step continuity errors : sum local = 1.592708365e-12, global = -1.941759719e-13, cumulative = -1.301091821e-09
ExecutionTime = 275.87 s  ClockTime = 309 s

forceCoeffs forceCoeffs write:
    Coefficient	Total	Pressure	Viscous	Internal
    Cd:	3.100939105	2.449454319	0.6514847858	0
    Cd(f):	1.550468899	1.224726761	0.3257421376	0
    Cd(r):	1.550470206	1.224727558	0.3257426483	0
    Cl:	-3.418372847e-05	-3.37918195e-05	-3.919089681e-07	0
    Cl(f):	-1.24625581e-05	-1.689590975e-05	4.433351647e-06	0
    Cl(r):	-2.172117036e-05	-1.689590975e-05	-4.825260615e-06	0
    CmPitch:	4.629306129e-06	-2.449102552e-15	4.629306131e-06	0
    CmRoll:	-6.535777101e-07	-3.982420765e-07	-2.553356336e-07	0
    CmYaw:	-5.623075292e-05	-4.893826219e-05	-7.292490725e-06	0
    Cs:	6.79396535e-08	6.794072434e-08	-1.070839927e-12	0
    Cs(f):	-5.619678309e-05	-4.890429183e-05	-7.29249126e-06	0
    Cs(r):	5.626472275e-05	4.897223256e-05	7.29249019e-06	0

    writing force and moment coefficient files.

Courant Number mean: 0.08866586072 max: 0.9000016164
deltaT = 0.001136678556
Time = 1.998313536366739

PIMPLE: iteration 1
DILUPBiCGStab:  Solving for Ux, Initial residual = 9.126387011e-06, Final residual = 2.000447387e-10, No Iterations 1
DILUPBiCGStab:  Solving for Uy, Initial residual = 2.424857126e-05, Final residual = 9.654790364e-11, No Iterations 2
GAMG:  Solving for p, Initial residual = 0.000736737799, Final residual = 4.641421514e-06, No Iterations 3
GAMG:  Solving for p, Initial residual = 2.468655594e-05, Final residual = 2.33817886e-07, No Iterations 5
time step continuity errors : sum local = 5.87628544e-11, global = -2.950095126e-12, cumulative = -1.304041916e-09
GAMG:  Solving for p, Initial residual = 2.639654852e-05, Final residual = 2.269612808e-07, No Iterations 4
GAMG:  Solving for p, Initial residual = 1.985410229e-06, Final residual = 8.822474175e-09, No Iterations 8
time step continuity errors : sum local = 2.217267842e-12, global = -2.718151988e-13, cumulative = -1.304313732e-09
ExecutionTime = 276 s  ClockTime = 309 s

forceCoeffs forceCoeffs write:
    Coefficient	Total	Pressure	Viscous	Internal
    Cd:	3.100935615	2.449450826	0.6514847882	0
    Cd(f):	1.550468597	1.224726464	0.3257421327	0
    Cd(r):	1.550467018	1.224724363	0.3257426555	0
    Cl:	-3.289417284e-05	-3.215824214e-05	-7.359307065e-07	0
    Cl(f):	-1.184574063e-05	-1.607912107e-05	4.233380438e-06	0
    Cl(r):	-2.104843221e-05	-1.607912107e-05	-4.969311145e-06	0
    CmPitch:	4.601345789e-06	-2.929443704e-15	4.601345792e-06	0
    CmRoll:	7.893046548e-07	1.050715895e-06	-2.614112406e-07	0
    CmYaw:	-5.534000906e-05	-4.804189204e-05	-7.298117025e-06	0
    Cs:	6.792323958e-08	6.794376293e-08	-2.052334524e-11	0
    Cs(f):	-5.530604744e-05	-4.800792016e-05	-7.298127286e-06	0
    Cs(r):	5.537397068e-05	4.807586392e-05	7.298106763e-06	0

    writing force and moment coefficient files.

Courant Number mean: 0.08866567913 max: 0.8999990296
deltaT = 0.001136679782
Time = 1.999450216148542

PIMPLE: iteration 1
DILUPBiCGStab:  Solving for Ux, Initial residual = 9.106768898e-06, Final residual = 1.984251679e-10, No Iterations 1
DILUPBiCGStab:  Solving for Uy, Initial residual = 2.426331199e-05, Final residual = 9.161590353e-11, No Iterations 2
GAMG:  Solving for p, Initial residual = 0.0007370789366, Final residual = 4.654107466e-06, No Iterations 3
GAMG:  Solving for p, Initial residual = 2.485094104e-05, Final residual = 2.383666601e-07, No Iterations 5
time step continuity errors : sum local = 5.990551678e-11, global = -2.175856475e-12, cumulative = -1.306489588e-09
GAMG:  Solving for p, Initial residual = 2.643443034e-05, Final residual = 2.307910704e-07, No Iterations 4
GAMG:  Solving for p, Initial residual = 1.917766538e-06, Final residual = 6.459319086e-09, No Iterations 9
time step continuity errors : sum local = 1.623333243e-12, global = -1.934478105e-13, cumulative = -1.306683036e-09
ExecutionTime = 276.38 s  ClockTime = 310 s

forceCoeffs forceCoeffs write:
    Coefficient	Total	Pressure	Viscous	Internal
    Cd:	3.100938781	2.449454021	0.6514847603	0
    Cd(f):	1.550468733	1.224726608	0.3257421247	0
    Cd(r):	1.550470048	1.224727413	0.3257426356	0
    Cl:	-4.083902279e-05	-3.978706712e-05	-1.05195567e-06	0
    Cl(f):	-1.584320877e-05	-1.989353356e-05	4.05032479e-06	0
    Cl(r):	-2.499581402e-05	-1.989353356e-05	-5.10228046e-06	0
    CmPitch:	4.576302623e-06	-2.456259046e-15	4.576302625e-06	0
    CmRoll:	-6.578791239e-07	-4.024251362e-07	-2.554539877e-07	0
    CmYaw:	-5.624583365e-05	-4.895338932e-05	-7.292444335e-06	0
    Cs:	6.79429777e-08	6.794401573e-08	-1.038035422e-12	0
    Cs(f):	-5.621186216e-05	-4.891941731e-05	-7.292444854e-06	0
    Cs(r):	5.627980514e-05	4.898736132e-05	7.292443816e-06	0

    writing force and moment coefficient files.

    functionObjects::CourantNo CourantNo writing field: Co
End

