/*---------------------------------------------------------------------------*\
| =========                 |                                                 |
| \\      /  F ield         | OpenFOAM: The Open Source CFD Toolbox           |
|  \\    /   O peration     | Version:  2512                                  |
|   \\  /    A nd           | Website:  www.openfoam.com                      |
|    \\/     M anipulation  |                                                 |
\*---------------------------------------------------------------------------*/
Build  : _87ed40d256-20251219 OPENFOAM=2512 version=v2512
Arch   : "LSB;label=32;scalar=64"
Exec   : snappyHexMesh -overwrite
Date   : Apr 03 2026
Time   : 14:01:32
Host   : DESKTOP-EJKBDEA
PID    : 2655
I/O    : uncollated
Case   : /mnt/c/openfoam-case/VV_cases/V1_solver/baseline_medium_Re100
nProcs : 1
trapFpe: Floating point exception trapping enabled (FOAM_SIGFPE).
memory pool : not available
fileModificationChecking : Monitoring run-time modified files using timeStampMaster (fileModificationSkew 5, maxFileModificationPolls 20)
allowSystemOperations : Allowing user-supplied system call operations

// * * * * * * * * * * * * * * * * * * * * * * * * * * * * * * * * * * * * * //
Create time

Create mesh for time = 0

Read mesh in = 0.04 s

Overall mesh bounding box  : (-0.096 -0.012 -0.005) (0.24 0.012 0.005)
Relative tolerance         : 1e-06
Absolute matching distance : 3.37004451e-07

Reading refinement surfaces.
Read refinement surfaces in = 0 s

Reading refinement shells.
Refinement level 2 for all cells inside nearCylinder
Refinement level 1 for all cells inside wakeBox
Read refinement shells in = 0 s

Setting refinement level of surface to be consistent with shells.
Checked shell refinement in = 0 s

Reading features.
Read features in = 0 s


Determining initial surface intersections
-----------------------------------------

Edge intersection testing:
    Number of edges             : 6578
    Number of edges to retest   : 0
    Number of intersected edges : 0
Edge intersection testing:
    Number of edges             : 6578
    Number of edges to retest   : 6578
    Number of intersected edges : 22
Calculated surface intersections in = 0.01 s

Initial mesh : cells:1608  faces:6578  points:3510
Cells per refinement level:
    0	1608
Setting refinement level of surface to be consistent with curvature.
Checked curvature refinement in = 0 s


Adding patches for surface regions
----------------------------------

Patch Type                Region                        
----- ----                ------                        
cylinder:

6     wall                cylinder                      

Added patches in = 0 s

Edge intersection testing:
    Number of edges             : 6578
    Number of edges to retest   : 0
    Number of intersected edges : 22
Decomposition method none [1]

Refinement phase
----------------

Found point (-0.09 0 0) in cell 672 on processor 0

Surface refinement iteration 0
------------------------------

Marked for refinement due to surface intersection          : 32 cells.
Determined cells to refine in = 0.01 s
Selected for refinement : 32 cells (out of 1608)
Edge intersection testing:
    Number of edges             : 7412
    Number of edges to retest   : 1104
    Number of intersected edges : 84
Refined mesh in = 0 s
After refinement surface refinement iteration 0 : cells:1832  faces:7412  points:3918
Cells per refinement level:
    0	1576
    1	256

Surface refinement iteration 1
------------------------------

Marked for refinement due to surface intersection          : 128 cells.
Determined cells to refine in = 0 s
Selected for refinement : 138 cells (out of 1832)
Edge intersection testing:
    Number of edges             : 10781
    Number of edges to retest   : 4406
    Number of intersected edges : 344
Refined mesh in = 0.01 s
After refinement surface refinement iteration 1 : cells:2798  faces:10781  points:5396
Cells per refinement level:
    0	1566
    1	208
    2	1024

Surface refinement iteration 2
------------------------------

Marked for refinement due to surface intersection          : 496 cells.
Determined cells to refine in = 0 s
Selected for refinement : 524 cells (out of 2798)
Edge intersection testing:
    Number of edges             : 23237
    Number of edges to retest   : 16144
    Number of intersected edges : 1376
Refined mesh in = 0.02 s
After refinement surface refinement iteration 2 : cells:6466  faces:23237  points:10603
Cells per refinement level:
    0	1566
    1	180
    2	752
    3	3968

Surface refinement iteration 3
------------------------------

Marked for refinement due to surface intersection          : 0 cells.
Determined cells to refine in = 0 s
Selected for refinement : 0 cells (out of 6466)
Stopping refining since too few cells selected.


Removing mesh beyond surface intersections
------------------------------------------

Setting cellZones according to locationsInMesh:
Location : (-0.09 0 0)
    cellZone : none

For cellZone none found point (-0.09 0 0) in global region 0 out of 2 regions.
--> FOAM Warning : 
    From void Foam::meshRefinement::nearestFace(const Foam::labelUList&, const Foam::bitSet&, Foam::autoPtr<Foam::mapDistribute>&, Foam::labelList&, Foam::label) const
    in file meshRefinement/meshRefinement.C at line 526
    Did not visit some faces, e.g. face 0 at (-0.09349253731 -0.011 0)
Keeping all cells containing inside points
Selected for keeping : 5556 cells.
Edge intersection testing:
    Number of edges             : 20413
    Number of edges to retest   : 1104
    Number of intersected edges : 1376

Shell refinement iteration 0
----------------------------

Marked for refinement due to distance to explicit features : 0 cells.
Marked for refinement due to refinement shells             : 908 cells.
Determined cells to refine in = 0.03 s
Selected for internal refinement : 946 cells (out of 5556)
Edge intersection testing:
    Number of edges             : 43087
    Number of edges to retest   : 30122
    Number of intersected edges : 1376
Refined mesh in = 0.05 s
After refinement shell refinement iteration 0 : cells:12178  faces:43087  points:19120
Cells per refinement level:
    0	768
    1	6336
    2	1362
    3	3712

Shell refinement iteration 1
----------------------------

Marked for refinement due to distance to explicit features : 0 cells.
Marked for refinement due to refinement shells             : 3504 cells.
Determined cells to refine in = 0 s
Selected for internal refinement : 3504 cells (out of 12178)
Edge intersection testing:
    Number of edges             : 122377
    Number of edges to retest   : 93938
    Number of intersected edges : 1376
Refined mesh in = 0.13 s
After refinement shell refinement iteration 1 : cells:36706  faces:122377  points:49429
Cells per refinement level:
    0	768
    1	2832
    2	29394
    3	3712

Shell refinement iteration 2
----------------------------

Marked for refinement due to distance to explicit features : 0 cells.
Marked for refinement due to refinement shells             : 0 cells.
Determined cells to refine in = 0.01 s
Selected for internal refinement : 0 cells (out of 36706)
Stopping refining since too few cells selected.


Dangling coarse cells refinement iteration 0
--------------------------------------------

Determined cells to refine in = 0 s
Selected for refinement : 0 cells (out of 36706)
Stopping refining since too few cells selected.


Dangling coarse cells refinement iteration 0
--------------------------------------------

Determined cells to refine in = 0.01 s
Selected for refinement : 0 cells (out of 36706)
Stopping refining since too few cells selected.


Refinement transition refinement iteration 0
--------------------------------------------

Determined cells to refine in = 0.01 s
Selected for refinement : 0 cells (out of 36706)
Stopping refining since too few cells selected.


Splitting mesh at surface intersections
---------------------------------------

Introducing baffles for 1376 faces that are intersected by the surface.

Setting cellZones according to locationsInMesh:
Location : (-0.09 0 0)
    cellZone : none

For cellZone none found point (-0.09 0 0) in global region 0 out of 2 regions.
Edge intersection testing:
    Number of edges             : 123753
    Number of edges to retest   : 8852
    Number of intersected edges : 2752
Created baffles in = 0.09 s


After introducing baffles : cells:36706  faces:123753  points:49429
Cells per refinement level:
    0	768
    1	2832
    2	29394
    3	3712

Introducing baffles to block off problem cells
----------------------------------------------

markFacesOnProblemCells : marked 2190 additional internal faces to be converted into baffles.
Analyzed problem cells in = 0.06 s


Introducing baffles to delete problem cells.

Edge intersection testing:
    Number of edges             : 125943
    Number of edges to retest   : 7239
    Number of intersected edges : 2752
Created baffles in = 0.07 s


After introducing baffles : cells:36706  faces:125943  points:49429
Cells per refinement level:
    0	768
    1	2832
    2	29394
    3	3712
Setting cellZones according to locationsInMesh:
Location : (-0.09 0 0)
    cellZone : none

For cellZone none found point (-0.09 0 0) in global region 0 out of 1109 regions.
Edge intersection testing:
    Number of edges             : 125943
    Number of edges to retest   : 10161
    Number of intersected edges : 2752

Remove unreachable sections of mesh
-----------------------------------

Keeping all cells containing points 1((-0.09 0 0))
Selected for keeping : 35220 cells.
Edge intersection testing:
    Number of edges             : 117746
    Number of edges to retest   : 0
    Number of intersected edges : 1376
Split mesh in = 0.14 s


After subsetting : cells:35220  faces:117746  points:47772
Cells per refinement level:
    0	768
    1	2832
    2	29380
    3	2240

Introducing zones for interfaces
--------------------------------

Setting cellZones according to locationsInMesh:
Location : (-0.09 0 0)
    cellZone : none

For cellZone none found point (-0.09 0 0) in global region 0 out of 1 regions.
Setting faceZones according to neighbouring cellZones:

Edge intersection testing:
    Number of edges             : 117746
    Number of edges to retest   : 0
    Number of intersected edges : 1376

Handling cells with snap problems
---------------------------------

Introducing baffles for 1376 faces that are intersected by the surface.

Setting cellZones according to locationsInMesh:
Location : (-0.09 0 0)
    cellZone : none

For cellZone none found point (-0.09 0 0) in global region 0 out of 1 regions.
Edge intersection testing:
    Number of edges             : 117746
    Number of edges to retest   : 4508
    Number of intersected edges : 1376
Created baffles in = 0.13 s


After introducing baffles : cells:35220  faces:117746  points:47772
Cells per refinement level:
    0	768
    1	2832
    2	29380
    3	2240

Introducing baffles to block off problem cells
----------------------------------------------

markFacesOnProblemCells : marked 0 additional internal faces to be converted into baffles.
Analyzed problem cells in = 0.04 s


Introducing baffles to delete problem cells.

Created baffles in = 0.01 s


After introducing baffles : cells:35220  faces:117746  points:47772
Cells per refinement level:
    0	768
    1	2832
    2	29380
    3	2240
Setting cellZones according to locationsInMesh:
Location : (-0.09 0 0)
    cellZone : none

For cellZone none found point (-0.09 0 0) in global region 0 out of 1 regions.
Edge intersection testing:
    Number of edges             : 117746
    Number of edges to retest   : 4508
    Number of intersected edges : 1376

Remove unreachable sections of mesh
-----------------------------------

Split mesh in = 0.09 s


After subsetting : cells:35220  faces:117746  points:47772
Cells per refinement level:
    0	768
    1	2832
    2	29380
    3	2240

Merge free-standing baffles
---------------------------

freeStandingBaffles : detected 0 free-standing baffles out of 0

Detected free-standing baffles : 0
Merged free-standing baffles in = 0.02 s


dupNonManifoldPoints : Found : 0 non-manifold points (out of 47772)
Detected unsplittable baffles : 0

Merge refined boundary faces
----------------------------

Merging 0 sets of faces.

No faces merged ...

Merging all points on surface that
- are used by only two boundary faces and
- make an angle with a cosine of more than 0.7071067812.

No straight edges simplified and no points removed ...
Refined mesh : cells:35220  faces:117746  points:47772
Cells per refinement level:
    0	768
    1	2832
    2	29380
    3	2240
Writing mesh to time constant
Wrote mesh in = 0.19 s.
Mesh refined in = 1.21 s.

Morphing phase
--------------

Duplicating 0 points on faceZones of type boundary
Snapping to features in 10 iterations ...
Constructing mesh displacer ...
Using mesh parameters 
{
    maxNonOrtho     65;
    maxBoundarySkewness 20;
    maxInternalSkewness 4;
    maxConcave      80;
    minVol          1e-13;
    minTetQuality   1e-30;
    minArea         -1;
    minTwist        0.02;
    minDeterminant  0.001;
    minFaceWeight   0.02;
    minVolRatio     0.01;
    minTriangleTwist -1;
    nSmoothScale    4;
    errorReduction  0.75;
    relaxed
    {
        maxNonOrtho     75;
    }
}


Checking initial mesh ...
Checking faces in error :
    non-orthogonality > 65  degrees                        : 0
    faces with face pyramid volume < 1e-13                 : 0
    faces with face-decomposition tet quality < 1e-30      : 0
    faces with concavity > 80  degrees                     : 0
    faces with skewness > 4   (internal) or 20  (boundary) : 0
    faces with interpolation weights (0..1)  < 0.02        : 0
    faces with volume ratio of neighbour cells < 0.01      : 0
    faces with face twist < 0.02                           : 0
    faces on cells with determinant < 0.001                : 0
Detected 0 illegal faces (concave, zero area or negative cell pyramid volume)
Checked initial mesh in = 0.37 s


Smoothing patch points ...
Smoothing iteration 0
Found 0 non-manifold point(s).

Scaling iteration 0
Moving mesh using displacement scaling : min:1 max:1
Correcting 2-D mesh motion--> FOAM Warning : 
    From void Foam::twoDPointCorrector::calcAddressing() const
    in file twoDPointCorrector/twoDPointCorrector.C at line 162
    The number of points in the mesh is not equal to twice the number of edges normal to the plane - this may be OK only for wedge geometries.
    Please check the geometry or adjust the orthogonality tolerance.

Number of normal edges: 37494 number of points: 47772
 ...done
Checking faces in error :
    non-orthogonality > 65  degrees                        : 0
    faces with face pyramid volume < 1e-13                 : 0
    faces with face-decomposition tet quality < 1e-30      : 0
    faces with concavity > 80  degrees                     : 0
    faces with skewness > 4   (internal) or 20  (boundary) : 0
    faces with interpolation weights (0..1)  < 0.02        : 0
    faces with volume ratio of neighbour cells < 0.01      : 0
    faces with face twist < 0.02                           : 0
    faces on cells with determinant < 0.001                : 0
Successfully moved mesh

Smoothing iteration 1
Found 0 non-manifold point(s).

Scaling iteration 0
Moving mesh using displacement scaling : min:1 max:1
Correcting 2-D mesh motion ...done
Checking faces in error :
    non-orthogonality > 65  degrees                        : 0
    faces with face pyramid volume < 1e-13                 : 0
    faces with face-decomposition tet quality < 1e-30      : 0
    faces with concavity > 80  degrees                     : 0
    faces with skewness > 4   (internal) or 20  (boundary) : 0
    faces with interpolation weights (0..1)  < 0.02        : 0
    faces with volume ratio of neighbour cells < 0.01      : 0
    faces with face twist < 0.02                           : 0
    faces on cells with determinant < 0.001                : 0
Successfully moved mesh

Smoothing iteration 2
Found 0 non-manifold point(s).

Scaling iteration 0
Moving mesh using displacement scaling : min:1 max:1
Correcting 2-D mesh motion ...done
Checking faces in error :
    non-orthogonality > 65  degrees                        : 0
    faces with face pyramid volume < 1e-13                 : 0
    faces with face-decomposition tet quality < 1e-30      : 0
    faces with concavity > 80  degrees                     : 0
    faces with skewness > 4   (internal) or 20  (boundary) : 0
    faces with interpolation weights (0..1)  < 0.02        : 0
    faces with volume ratio of neighbour cells < 0.01      : 0
    faces with face twist < 0.02                           : 0
    faces on cells with determinant < 0.001                : 0
Successfully moved mesh

Smoothing iteration 3
Found 0 non-manifold point(s).

Scaling iteration 0
Moving mesh using displacement scaling : min:1 max:1
Correcting 2-D mesh motion ...done
Checking faces in error :
    non-orthogonality > 65  degrees                        : 0
    faces with face pyramid volume < 1e-13                 : 0
    faces with face-decomposition tet quality < 1e-30      : 0
    faces with concavity > 80  degrees                     : 0
    faces with skewness > 4   (internal) or 20  (boundary) : 0
    faces with interpolation weights (0..1)  < 0.02        : 0
    faces with volume ratio of neighbour cells < 0.01      : 0
    faces with face twist < 0.02                           : 0
    faces on cells with determinant < 0.001                : 0
Successfully moved mesh

Smoothing iteration 4
Found 0 non-manifold point(s).

Scaling iteration 0
Moving mesh using displacement scaling : min:1 max:1
Correcting 2-D mesh motion ...done
Checking faces in error :
    non-orthogonality > 65  degrees                        : 0
    faces with face pyramid volume < 1e-13                 : 0
    faces with face-decomposition tet quality < 1e-30      : 0
    faces with concavity > 80  degrees                     : 0
    faces with skewness > 4   (internal) or 20  (boundary) : 0
    faces with interpolation weights (0..1)  < 0.02        : 0
    faces with volume ratio of neighbour cells < 0.01      : 0
    faces with face twist < 0.02                           : 0
    faces on cells with determinant < 0.001                : 0
Successfully moved mesh

Patch points smoothed in = 67.56 s



Morph iteration 0
-----------------
Calculating patchDisplacement as distance to nearest surface point ...
    non-zone points : attract to nearest of all non-zone surfaces
    zone points     : attract to zone surface only

Wanted displacement : average:5.74742038e-05 min:1.158066571e-07 max:0.0001433160704
Calculated surface displacement in = 0 s


Detecting near surfaces ...
Overriding nearest with intersection of close gaps at 0 out of 1548 points.
Overriding displacement on features :
   implicit features    : true
   explicit features    : false
   multi-patch features : false

Attraction:
    linear   : max:(0.0001414878648 -2.281841681e-05 0) avg:(1.979127465e-05 -8.404668004e-21 0)
    feature  : max:(0.000139985454 -2.526407372e-05 -0) avg:(1.97225726e-05 -1.33979177e-09 0)
Feature analysis : total master points :1548 of which attracted to :
    feature point   : 0
    feature edge    : 0
    nearest surface : 1548
    rest            : 0

--> FOAM Warning : Displacement (5.456460628e-07 -4.637357551e-07 8.796900392e-12) at mesh point 5101 coord (0.003333165629 -0.004980026391 0) points through the surrounding patch faces
Smoothing displacement ...
Iteration 0
Iteration 10
Iteration 20
Iteration 30
Iteration 40
Iteration 50
Iteration 60
Iteration 70
Iteration 80
Iteration 90
Displacement smoothed in = 0.13 s


Moving mesh ...

Iteration 0
Moving mesh using displacement scaling : min:1 max:1
Correcting 2-D mesh motion ...done
Checking faces in error :
    non-orthogonality > 65  degrees                        : 0
    faces with face pyramid volume < 1e-13                 : 0
    faces with face-decomposition tet quality < 1e-30      : 0
    faces with concavity > 80  degrees                     : 0
    faces with skewness > 4   (internal) or 20  (boundary) : 0
    faces with interpolation weights (0..1)  < 0.02        : 0
    faces with volume ratio of neighbour cells < 0.01      : 0
    faces with face twist < 0.02                           : 0
    faces on cells with determinant < 0.001                : 0
Successfully moved mesh
Moved mesh in = 12.67 s



Morph iteration 1
-----------------
Calculating patchDisplacement as distance to nearest surface point ...
    non-zone points : attract to nearest of all non-zone surfaces
    zone points     : attract to zone surface only

Wanted displacement : average:5.235070422e-05 min:2.143891216e-07 max:0.0001308123339
Calculated surface displacement in = 0 s


Detecting near surfaces ...
Overriding nearest with intersection of close gaps at 0 out of 1548 points.
Overriding displacement on features :
   implicit features    : true
   explicit features    : false
   multi-patch features : false

Attraction:
    linear   : max:(0.0001291433919 -2.082909074e-05 0) avg:(1.782475908e-05 -2.059143661e-20 0)
    feature  : max:(0.0001276893708 -2.303963762e-05 -0) avg:(1.776559776e-05 7.160167626e-10 0)
Feature analysis : total master points :1548 of which attracted to :
    feature point   : 0
    feature edge    : 0
    nearest surface : 1548
    rest            : 0

--> FOAM Warning : Displacement (1.071434707e-06 -9.891930144e-07 3.464271613e-11) at mesh point 5101 coord (0.003333218445 -0.004980102242 0) points through the surrounding patch faces
Smoothing displacement ...
Iteration 0
Iteration 10
Iteration 20
Iteration 30
Iteration 40
Iteration 50
Iteration 60
Iteration 70
Iteration 80
Iteration 90
Displacement smoothed in = 0.13 s


Moving mesh ...

Iteration 0
Moving mesh using displacement scaling : min:1 max:1
Correcting 2-D mesh motion ...done
Checking faces in error :
    non-orthogonality > 65  degrees                        : 0
    faces with face pyramid volume < 1e-13                 : 0
    faces with face-decomposition tet quality < 1e-30      : 0
    faces with concavity > 80  degrees                     : 0
    faces with skewness > 4   (internal) or 20  (boundary) : 0
    faces with interpolation weights (0..1)  < 0.02        : 0
    faces with volume ratio of neighbour cells < 0.01      : 0
    faces with face twist < 0.02                           : 0
    faces on cells with determinant < 0.001                : 0
Successfully moved mesh
Moved mesh in = 12.76 s



Morph iteration 2
-----------------
Calculating patchDisplacement as distance to nearest surface point ...
    non-zone points : attract to nearest of all non-zone surfaces
    zone points     : attract to zone surface only

Wanted displacement : average:4.300876014e-05 min:3.696015897e-07 max:0.0001097113937
Calculated surface displacement in = 0 s


Detecting near surfaces ...
Overriding nearest with intersection of close gaps at 0 out of 1548 points.
Overriding displacement on features :
   implicit features    : true
   explicit features    : false
   multi-patch features : false

Attraction:
    linear   : max:(0.0001083111173 -1.747260091e-05 0) avg:(1.428002021e-05 -5.603112003e-21 0)
    feature  : max:(0.0001069367401 1.929015905e-05 -0) avg:(1.425598562e-05 4.237612698e-10 0)
Feature analysis : total master points :1548 of which attracted to :
    feature point   : 0
    feature edge    : 0
    nearest surface : 1548
    rest            : 0

--> FOAM Warning : Displacement (1.475407092e-06 -1.483754835e-06 8.299496072e-11) at mesh point 5101 coord (0.003333368172 -0.004980379636 0) points through the surrounding patch faces
Smoothing displacement ...
Iteration 0
Iteration 10
Iteration 20
Iteration 30
Iteration 40
Iteration 50
Iteration 60
Iteration 70
Iteration 80
Iteration 90
Displacement smoothed in = 0.13 s


Moving mesh ...

Iteration 0
Moving mesh using displacement scaling : min:1 max:1
Correcting 2-D mesh motion ...done
Checking faces in error :
    non-orthogonality > 65  degrees                        : 0
    faces with face pyramid volume < 1e-13                 : 0
    faces with face-decomposition tet quality < 1e-30      : 0
    faces with concavity > 80  degrees                     : 0
    faces with skewness > 4   (internal) or 20  (boundary) : 0
    faces with interpolation weights (0..1)  < 0.02        : 0
    faces with volume ratio of neighbour cells < 0.01      : 0
    faces with face twist < 0.02                           : 0
    faces on cells with determinant < 0.001                : 0
Successfully moved mesh
Moved mesh in = 13.5 s



Morph iteration 3
-----------------
Calculating patchDisplacement as distance to nearest surface point ...
    non-zone points : attract to nearest of all non-zone surfaces
    zone points     : attract to zone surface only

Wanted displacement : average:3.178910199e-05 min:2.874627961e-07 max:8.346007171e-05
Calculated surface displacement in = 0 s


Detecting near surfaces ...
Overriding nearest with intersection of close gaps at 0 out of 1548 points.
Overriding displacement on features :
   implicit features    : true
   explicit features    : false
   multi-patch features : false

Attraction:
    linear   : max:(8.239445026e-05 -1.329428957e-05 0) avg:(1.001744943e-05 -6.793773303e-21 0)
    feature  : max:(8.111922227e-05 1.462689038e-05 -0) avg:(1.000062577e-05 2.235182797e-09 0)
Feature analysis : total master points :1548 of which attracted to :
    feature point   : 0
    feature edge    : 0
    nearest surface : 1548
    rest            : 0

--> FOAM Warning : Displacement (8.307128182e-07 -3.926307742e-07 9.544895925e-11) at mesh point 3476 coord (0.003160106237 -0.005090109872 0) points through the surrounding patch faces
Smoothing displacement ...
Iteration 0
Iteration 10
Iteration 20
Iteration 30
Iteration 40
Iteration 50
Iteration 60
Iteration 70
Iteration 80
Iteration 90
Displacement smoothed in = 0.14 s


Moving mesh ...

Iteration 0
Moving mesh using displacement scaling : min:1 max:1
Correcting 2-D mesh motion ...done
Checking faces in error :
    non-orthogonality > 65  degrees                        : 0
    faces with face pyramid volume < 1e-13                 : 0
    faces with face-decomposition tet quality < 1e-30      : 0
    faces with concavity > 80  degrees                     : 0
    faces with skewness > 4   (internal) or 20  (boundary) : 0
    faces with interpolation weights (0..1)  < 0.02        : 0
    faces with volume ratio of neighbour cells < 0.01      : 0
    faces with face twist < 0.02                           : 0
    faces on cells with determinant < 0.001                : 0
Successfully moved mesh
Moved mesh in = 13.64 s



Morph iteration 4
-----------------
Calculating patchDisplacement as distance to nearest surface point ...
    non-zone points : attract to nearest of all non-zone surfaces
    zone points     : attract to zone surface only

Wanted displacement : average:2.126984568e-05 min:1.284681628e-07 max:5.692657845e-05
Calculated surface displacement in = 0 s


Detecting near surfaces ...
Overriding nearest with intersection of close gaps at 0 out of 1548 points.
Overriding displacement on features :
   implicit features    : true
   explicit features    : false
   multi-patch features : false

Attraction:
    linear   : max:(5.619953087e-05 -9.069071793e-06 0) avg:(6.027846001e-06 -6.373539903e-21 0)
    feature  : max:(5.502341411e-05 9.916871644e-06 -0) avg:(6.008765731e-06 -1.274396246e-09 0)
Feature analysis : total master points :1548 of which attracted to :
    feature point   : 0
    feature edge    : 0
    nearest surface : 1548
    rest            : 0

--> FOAM Warning : Displacement (2.001675574e-07 -4.939298706e-07 -1.921356448e-10) at mesh point 8010 coord (0.005310096241 0.002774668869 -0.005) points through the surrounding patch faces
Smoothing displacement ...
Iteration 0
Iteration 10
Iteration 20
Iteration 30
Iteration 40
Iteration 50
Iteration 60
Iteration 70
Iteration 80
Iteration 90
Displacement smoothed in = 0.12 s


Moving mesh ...

Iteration 0
Moving mesh using displacement scaling : min:1 max:1
Correcting 2-D mesh motion ...done
Checking faces in error :
    non-orthogonality > 65  degrees                        : 0
    faces with face pyramid volume < 1e-13                 : 0
    faces with face-decomposition tet quality < 1e-30      : 0
    faces with concavity > 80  degrees                     : 0
    faces with skewness > 4   (internal) or 20  (boundary) : 0
    faces with interpolation weights (0..1)  < 0.02        : 0
    faces with volume ratio of neighbour cells < 0.01      : 0
    faces with face twist < 0.02                           : 0
    faces on cells with determinant < 0.001                : 0
Successfully moved mesh
Moved mesh in = 13.15 s



Morph iteration 5
-----------------
Calculating patchDisplacement as distance to nearest surface point ...
    non-zone points : attract to nearest of all non-zone surfaces
    zone points     : attract to zone surface only

Wanted displacement : average:1.259729849e-05 min:1.04379977e-07 max:3.432020182e-05
Calculated surface displacement in = 0 s


Detecting near surfaces ...
Overriding nearest with intersection of close gaps at 0 out of 1548 points.
Overriding displacement on features :
   implicit features    : true
   explicit features    : false
   multi-patch features : false

Attraction:
    linear   : max:(3.388180331e-05 -5.468057889e-06 0) avg:(3.024960029e-06 1.176653521e-20 0)
    feature  : max:(3.279286575e-05 5.906643492e-06 -0) avg:(3.020871944e-06 -5.397327356e-10 0)
Feature analysis : total master points :1548 of which attracted to :
    feature point   : 0
    feature edge    : 0
    nearest surface : 1548
    rest            : 0

--> FOAM Warning : Displacement (3.530812334e-07 -1.667668061e-06 -1.076304926e-10) at mesh point 7984 coord (0.001514423095 -0.005797488886 -0.005) points through the surrounding patch faces
Smoothing displacement ...
Iteration 0
Iteration 10
Iteration 20
Iteration 30
Iteration 40
Iteration 50
Iteration 60
Iteration 70
Iteration 80
Iteration 90
Displacement smoothed in = 0.13 s


Moving mesh ...

Iteration 0
Moving mesh using displacement scaling : min:1 max:1
Correcting 2-D mesh motion ...done
Checking faces in error :
    non-orthogonality > 65  degrees                        : 0
    faces with face pyramid volume < 1e-13                 : 0
    faces with face-decomposition tet quality < 1e-30      : 0
    faces with concavity > 80  degrees                     : 0
    faces with skewness > 4   (internal) or 20  (boundary) : 0
    faces with interpolation weights (0..1)  < 0.02        : 0
    faces with volume ratio of neighbour cells < 0.01      : 0
    faces with face twist < 0.02                           : 0
    faces on cells with determinant < 0.001                : 0
Successfully moved mesh
Moved mesh in = 12.74 s



Morph iteration 6
-----------------
Calculating patchDisplacement as distance to nearest surface point ...
    non-zone points : attract to nearest of all non-zone surfaces
    zone points     : attract to zone surface only

Wanted displacement : average:6.489294257e-06 min:7.775838329e-11 max:1.781860235e-05
Calculated surface displacement in = 0 s


Detecting near surfaces ...
Overriding nearest with intersection of close gaps at 0 out of 1548 points.
Overriding displacement on features :
   implicit features    : true
   explicit features    : false
   multi-patch features : false

Attraction:
    linear   : max:(1.75909496e-05 -2.839204441e-06 0) avg:(1.215385393e-06 6.653695503e-21 0)
    feature  : max:(1.656201911e-05 2.982353552e-06 -0) avg:(1.223372767e-06 -6.515206885e-10 0)
Feature analysis : total master points :1548 of which attracted to :
    feature point   : 0
    feature edge    : 0
    nearest surface : 1548
    rest            : 0

--> FOAM Warning : Displacement (6.190593107e-07 7.450186741e-07 3.741562171e-11) at mesh point 1101 coord (0.004396049243 0.004079338246 -0.005) points through the surrounding patch faces
Smoothing displacement ...
Iteration 0
Iteration 10
Iteration 20
Iteration 30
Iteration 40
Iteration 50
Iteration 60
Iteration 70
Iteration 80
Iteration 90
Displacement smoothed in = 0.13 s


Moving mesh ...

Iteration 0
Moving mesh using displacement scaling : min:1 max:1
Correcting 2-D mesh motion ...done
Checking faces in error :
    non-orthogonality > 65  degrees                        : 0
    faces with face pyramid volume < 1e-13                 : 0
    faces with face-decomposition tet quality < 1e-30      : 0
    faces with concavity > 80  degrees                     : 0
    faces with skewness > 4   (internal) or 20  (boundary) : 0
    faces with interpolation weights (0..1)  < 0.02        : 0
    faces with volume ratio of neighbour cells < 0.01      : 0
    faces with face twist < 0.02                           : 0
    faces on cells with determinant < 0.001                : 0
Successfully moved mesh
Moved mesh in = 13.06 s



Morph iteration 7
-----------------
Calculating patchDisplacement as distance to nearest surface point ...
    non-zone points : attract to nearest of all non-zone surfaces
    zone points     : attract to zone surface only

Wanted displacement : average:2.856639169e-06 min:2.570025205e-08 max:7.534712087e-06
Calculated surface displacement in = 0.01 s


Detecting near surfaces ...
Overriding nearest with intersection of close gaps at 0 out of 1548 points.
Overriding displacement on features :
   implicit features    : true
   explicit features    : false
   multi-patch features : false

Attraction:
    linear   : max:(7.438442646e-06 -1.200607026e-06 0) avg:(3.665486801e-07 -5.708170353e-21 0)
    feature  : max:(6.388021122e-06 9.069918117e-07 -0) avg:(3.759647766e-07 -3.303097976e-10 0)
Feature analysis : total master points :1548 of which attracted to :
    feature point   : 0
    feature edge    : 0
    nearest surface : 1548
    rest            : 0

--> FOAM Warning : Displacement (7.725582475e-07 7.649401271e-07 9.361240925e-12) at mesh point 1101 coord (0.004396678478 0.004080077993 -0.005) points through the surrounding patch faces
Smoothing displacement ...
Iteration 0
Iteration 10
Iteration 20
Iteration 30
Iteration 40
Iteration 50
Iteration 60
Iteration 70
Iteration 80
Iteration 90
Displacement smoothed in = 0.13 s


Moving mesh ...

Iteration 0
Moving mesh using displacement scaling : min:1 max:1
Correcting 2-D mesh motion ...done
Checking faces in error :
    non-orthogonality > 65  degrees                        : 0
    faces with face pyramid volume < 1e-13                 : 0
    faces with face-decomposition tet quality < 1e-30      : 0
    faces with concavity > 80  degrees                     : 0
    faces with skewness > 4   (internal) or 20  (boundary) : 0
    faces with interpolation weights (0..1)  < 0.02        : 0
    faces with volume ratio of neighbour cells < 0.01      : 0
    faces with face twist < 0.02                           : 0
    faces on cells with determinant < 0.001                : 0
Successfully moved mesh
Moved mesh in = 13.48 s



Morph iteration 8
-----------------
Calculating patchDisplacement as distance to nearest surface point ...
    non-zone points : attract to nearest of all non-zone surfaces
    zone points     : attract to zone surface only

Wanted displacement : average:9.416738237e-07 min:7.590566437e-08 max:2.318340759e-06
Calculated surface displacement in = 0.01 s


Detecting near surfaces ...
Overriding nearest with intersection of close gaps at 0 out of 1548 points.
Overriding displacement on features :
   implicit features    : true
   explicit features    : false
   multi-patch features : false

Attraction:
    linear   : max:(2.28871843e-06 -3.694209341e-07 0) avg:(7.376164703e-08 -2.381322601e-21 0)
    feature  : max:(-2.725919821e-06 -6.752737344e-07 0) avg:(8.240040038e-08 -8.61993338e-11 0)
Feature analysis : total master points :1548 of which attracted to :
    feature point   : 0
    feature edge    : 0
    nearest surface : 1548
    rest            : 0

--> FOAM Warning : Displacement (4.405430488e-07 4.154623483e-07 8.224110887e-13) at mesh point 1101 coord (0.004397456611 0.004080838858 -0.005) points through the surrounding patch faces
Smoothing displacement ...
Iteration 0
Iteration 10
Iteration 20
Iteration 30
Iteration 40
Iteration 50
Iteration 60
Iteration 70
Iteration 80
Iteration 90
Displacement smoothed in = 0.12 s


Moving mesh ...

Iteration 0
Moving mesh using displacement scaling : min:1 max:1
Correcting 2-D mesh motion ...done
Checking faces in error :
    non-orthogonality > 65  degrees                        : 0
    faces with face pyramid volume < 1e-13                 : 0
    faces with face-decomposition tet quality < 1e-30      : 0
    faces with concavity > 80  degrees                     : 0
    faces with skewness > 4   (internal) or 20  (boundary) : 0
    faces with interpolation weights (0..1)  < 0.02        : 0
    faces with volume ratio of neighbour cells < 0.01      : 0
    faces with face twist < 0.02                           : 0
    faces on cells with determinant < 0.001                : 0
Successfully moved mesh
Moved mesh in = 13.53 s



Morph iteration 9
-----------------
Calculating patchDisplacement as distance to nearest surface point ...
    non-zone points : attract to nearest of all non-zone surfaces
    zone points     : attract to zone surface only

Wanted displacement : average:1.678596375e-07 min:1.149415541e-10 max:3.936503358e-07
Calculated surface displacement in = 0 s


Detecting near surfaces ...
Overriding nearest with intersection of close gaps at 0 out of 1548 points.
Overriding displacement on features :
   implicit features    : true
   explicit features    : false
   multi-patch features : false

Attraction:
    linear   : max:(-3.805751943e-07 -1.006136588e-07 0) avg:(7.427763134e-09 1.162645741e-20 0)
    feature  : max:(-8.738901205e-08 -2.156692994e-06 0) avg:(1.640415258e-08 -1.140768356e-10 0)
Feature analysis : total master points :1548 of which attracted to :
    feature point   : 0
    feature edge    : 0
    nearest surface : 1548
    rest            : 0

--> FOAM Warning : Displacement (1.136430707e-07 1.054607773e-07 0) at mesh point 1101 coord (0.004397900083 0.004081251577 -0.005) points through the surrounding patch faces
Smoothing displacement ...
Iteration 0
Iteration 10
Iteration 20
Iteration 30
Iteration 40
Iteration 50
Iteration 60
Iteration 70
Iteration 80
Iteration 90
Displacement smoothed in = 0.16 s


Moving mesh ...

Iteration 0
Moving mesh using displacement scaling : min:1 max:1
Correcting 2-D mesh motion ...done
Checking faces in error :
    non-orthogonality > 65  degrees                        : 0
    faces with face pyramid volume < 1e-13                 : 0
    faces with face-decomposition tet quality < 1e-30      : 0
    faces with concavity > 80  degrees                     : 0
    faces with skewness > 4   (internal) or 20  (boundary) : 0
    faces with interpolation weights (0..1)  < 0.02        : 0
    faces with volume ratio of neighbour cells < 0.01      : 0
    faces with face twist < 0.02                           : 0
    faces on cells with determinant < 0.001                : 0
Successfully moved mesh
Moved mesh in = 13.7 s


Repatching faces according to nearest surface ...
Repatched 0 faces in = 0.02 s


Edge intersection testing:
    Number of edges             : 117746
    Number of edges to retest   : 80788
    Number of intersected edges : 1376
Merging 384 sets of faces.

Edge intersection testing:
    Number of edges             : 117362
    Number of edges to retest   : 1584
    Number of intersected edges : 992

Undo iteration 0
----------------
Checking faces in error :
    non-orthogonality > 65  degrees                        : 0
    faces with face pyramid volume < 1e-13                 : 0
    faces with face-decomposition tet quality < 1e-30      : 0
    faces with concavity > 80  degrees                     : 0
    faces with skewness > 4   (internal) or 20  (boundary) : 0
    faces with interpolation weights (0..1)  < 0.02        : 0
    faces with volume ratio of neighbour cells < 0.01      : 0
    faces with face twist < 0.02                           : 0
    faces on cells with determinant < 0.001                : 0

Merging all points on surface that
- are used by only two boundary faces and
- make an angle with a cosine of more than 0.8660254038.

Removing 432 straight edge points ...

Edge intersection testing:
    Number of edges             : 117362
    Number of edges to retest   : 1584
    Number of intersected edges : 992

Undo iteration 0
----------------
Checking faces in error :
    non-orthogonality > 65  degrees                        : 0
    faces with face pyramid volume < 1e-13                 : 0
    faces with face-decomposition tet quality < 1e-30      : 0
    faces with concavity > 80  degrees                     : 0
    faces with skewness > 4   (internal) or 20  (boundary) : 0
    faces with interpolation weights (0..1)  < 0.02        : 0
    faces with volume ratio of neighbour cells < 0.01      : 0
    faces with face twist < 0.02                           : 0
    faces on cells with determinant < 0.001                : 0
Snapped mesh : cells:35220  faces:117362  points:47340
Cells per refinement level:
    0	768
    1	2832
    2	29380
    3	2240
Writing mesh to time constant
Wrote mesh in = 0.2 s.
Mesh snapped in = 201.82 s.
Layer specification as
- final layer thickness ('finalLayerThickness')
- expansion ratio ('expansionRatio')

Shrinking and layer addition phase
----------------------------------

Using mesh parameters 
{
    maxNonOrtho     65;
    maxBoundarySkewness 20;
    maxInternalSkewness 4;
    maxConcave      80;
    minVol          1e-13;
    minTetQuality   1e-30;
    minArea         -1;
    minTwist        0.02;
    minDeterminant  0.001;
    minFaceWeight   0.02;
    minVolRatio     0.01;
    minTriangleTwist -1;
    nSmoothScale    4;
    errorReduction  0.75;
    relaxed
    {
        maxNonOrtho     75;
    }
}



Merging all faces of a cell
---------------------------
    - which are on the same patch
    - which make an angle < 60 degrees (cos:0.5)
    - as long as the resulting face doesn't become concave by more than 90 degrees
      (0=straight, 180=fully concave)

Merging 0 sets of faces.

No faces merged ...

Merging all points on surface that
- are used by only two boundary faces and
- make an angle with a cosine of more than 0.5.

No straight edges simplified and no points removed ...

Checking mesh manifoldness ...

Checking initial mesh ...
Checking faces in error :
    non-orthogonality > 65  degrees                        : 0
    faces with face pyramid volume < 1e-13                 : 0
    faces with face-decomposition tet quality < 1e-30      : 0
    faces with concavity > 80  degrees                     : 0
    faces with skewness > 4   (internal) or 20  (boundary) : 0
    faces with interpolation weights (0..1)  < 0.02        : 0
    faces with volume ratio of neighbour cells < 0.01      : 0
    faces with face twist < 0.02                           : 0
    faces on cells with determinant < 0.001                : 0
Detected 0 illegal faces (concave, zero area or negative cell pyramid volume)
Duplicating 0 points on faceZones of type boundary

Handling points with inconsistent layer specification ...
dupNonManifoldPoints : Found : 0 non-manifold points (out of 47340)

Handling points with inconsistent layer specification ...

Handling non-manifold points ...

Checking patch manifoldness ...
Outside of local patch is multiply connected across edges or points at 0 points.
Set displacement to zero for all 0 non-manifold points

Handling feature edges (angle < 60) ...
Set displacement to zero for points on 0 feature edges

Handling cells with warped patch faces ...
Set displacement to zero on 0 warped faces since layer would be > 0.5 of the size of the bounding box.

patch    faces    layers avg thickness[m]
                         near-wall overall
-----    -----    ------ --------- -------
bottom   830      2      0.000156  0.000344
top      830      2      0.000156  0.000344
cylinder 992      6      2.51e-05  0.000249


Outer iteration : 0
-------------------

Adding in total 0 inter-processor patches to handle extrusion of non-manifold processor boundaries.
Selecting externalDisplacementMeshMover displacementMedialAxis
displacementMedialAxis : Calculating distance to Medial Axis ...
fieldSmoother : Smoothing normals ...
    Iteration 0   residual 0.001780963346
displacementMedialAxis : Inserting points on patch inlet if angle to nearest layer patch > 30 degrees.
displacementMedialAxis : Inserting points on patch outlet if angle to nearest layer patch > 30 degrees.
fieldSmoother : Smoothing normals in interior ...
    Iteration 0   residual 0.03776471633

Layer addition iteration 0
--------------------------

Determining displacement for added points according to pointNormal ...
Detected 0 points with point normal pointing through faces.
Reset displacement at 0 points to average of surrounding points.

displacementMedialAxis : Smoothing using Medial Axis ...
displacementMedialAxis : Reducing layer thickness at 0 nodes where thickness to medial axis distance is large 
displacementMedialAxis : Removing isolated regions ...
- if partially extruded faces make angle < 30
- if exclusively surrounded by non-extruded faces
displacementMedialAxis : Number of isolated points extrusion stopped : 0
fieldSmoother : Smoothing field ...
    Iteration 0   residual 1.901329778e-07
displacementMedialAxis : Moving mesh ...
displacementMedialAxis : Iteration 0
Moving mesh using displacement scaling : min:1 max:1
Correcting 2-D mesh motion--> FOAM Warning : 
    From void Foam::twoDPointCorrector::calcAddressing() const
    in file twoDPointCorrector/twoDPointCorrector.C at line 162
    The number of points in the mesh is not equal to twice the number of edges normal to the plane - this may be OK only for wedge geometries.
    Please check the geometry or adjust the orthogonality tolerance.

Number of normal edges: 37110 number of points: 47340
 ...done
Checking faces in error :
    non-orthogonality > 65  degrees                        : 0
    faces with face pyramid volume < 1e-13                 : 0
    faces with face-decomposition tet quality < 1e-30      : 0
    faces with concavity > 80  degrees                     : 0
    faces with skewness > 4   (internal) or 20  (boundary) : 0
    faces with interpolation weights (0..1)  < 0.02        : 0
    faces with volume ratio of neighbour cells < 0.01      : 0
    faces with face twist < 0.02                           : 0
    faces on cells with determinant < 0.001                : 0
displacementMedialAxis : Successfully moved mesh
displacementMedialAxis : Finished moving mesh ...
truncateDisplacement : Unextruded 0 faces due to non-consecutive vertices being extruded.
truncateDisplacement : Unextruded 0 faces due to stringed edges with inconsistent extrusion.

Setting up information for layer truncation ...
Detected 0 baffles across faceZones of type internal


Checking mesh with layer ...
Checking faces in error :
    non-orthogonality > 65  degrees                        : 0
    faces with face pyramid volume < 1e-13                 : 0
    faces with face-decomposition tet quality < 1e-30      : 0
    faces with concavity > 80  degrees                     : 0
    faces with skewness > 4   (internal) or 20  (boundary) : 0
    faces with interpolation weights (0..1)  < 0.02        : 0
    faces with volume ratio of neighbour cells < 0.01      : 0
    faces with face twist < 0.02                           : 0
    faces on cells with determinant < 0.001                : 0
Detected 0 illegal faces (concave, zero area or negative cell pyramid volume)
Extruding 2652 out of 2652 faces (100%). Removed extrusion at 0 faces.
Added 9272 out of 9272 cells (100%).
Edge intersection testing:
    Number of edges             : 147078
    Number of edges to retest   : 0
    Number of intersected edges : 6944
Mesh with layers : cells:44492  faces:147078  points:58516

patch    faces        layers        overall thickness
                  target   mesh     [m]       [%]
-----    -----    -----    ----     ---       ---
bottom   830      2        2        0.000311  99.6    
top      830      2        2        0.000311  99.6    
cylinder 992      6        6        0.000249  100     

Writing 9272 added cells to cellSet addedCells
Writing 6620 faces inside added layer to faceSet layerFaces
Layer mesh : cells:44492  faces:147078  points:58516
Cells per refinement level:
    0	1024
    1	3304
    2	31972
    3	8192
Writing mesh to time constant
Wrote mesh in = 0.25 s.
Layers added in = 13.95 s.
Checking final mesh ...
Checking faces in error :
    non-orthogonality > 65  degrees                        : 0
    faces with face pyramid volume < 1e-13                 : 0
    faces with face-decomposition tet quality < 1e-30      : 0
    faces with concavity > 80  degrees                     : 0
    faces with skewness > 4   (internal) or 20  (boundary) : 0
    faces with interpolation weights (0..1)  < 0.02        : 0
    faces with volume ratio of neighbour cells < 0.01      : 0
    faces with face twist < 0.02                           : 0
    faces on cells with determinant < 0.001                : 0
Finished meshing without any errors
Finished meshing in = 217.12 s.
End

