/*---------------------------------------------------------------------------*\
| =========                 |                                                 |
| \\      /  F ield         | OpenFOAM: The Open Source CFD Toolbox           |
|  \\    /   O peration     | Version:  2512                                  |
|   \\  /    A nd           | Website:  www.openfoam.com                      |
|    \\/     M anipulation  |                                                 |
\*---------------------------------------------------------------------------*/
Build  : _87ed40d256-20251219 OPENFOAM=2512 version=v2512
Arch   : "LSB;label=32;scalar=64"
Exec   : checkMesh
Date   : Apr 03 2026
Time   : 14:52:52
Host   : DESKTOP-EJKBDEA
PID    : 1741
I/O    : uncollated
Case   : /mnt/c/openfoam-case/VV_cases/V1_solver/long_medium_Re160
nProcs : 1
trapFpe: Floating point exception trapping enabled (FOAM_SIGFPE).
memory pool : not available
fileModificationChecking : Monitoring run-time modified files using timeStampMaster (fileModificationSkew 5, maxFileModificationPolls 20)
allowSystemOperations : Allowing user-supplied system call operations

// * * * * * * * * * * * * * * * * * * * * * * * * * * * * * * * * * * * * * //
Create time

Create mesh for time = 0

Check mesh...

Time = 0

Mesh stats 
    points:           61265
    faces:            152862
    internal faces:   124536
    cells:            46040
    faces per cell:   6.025152042
    boundary patches: 7
    point zones:      1
    face zones:       0
    cell zones:       0

Overall number of cells of each type:
    hexahedra:     45112
    prisms:        384
    wedges:        0
    pyramids:      0
    tet wedges:    0
    tetrahedra:    0
    polyhedra:     544
    Breakdown of polyhedra by number of faces:
        faces   number of cells
            6   128
            7   24
            9   280
           12   110
           15   2

Checking topology...
    Boundary definition OK.
 ***Total number of faces on empty patches is not divisible by the number of cells in the mesh. Hence this mesh is not 1D or 2D.
    Cell to face addressing OK.
    Point usage OK.
    Upper triangular ordering OK.
    Face vertices OK.
    Number of regions: 1 (OK).

Checking patch topology for multiply connected surfaces...
                   Patch    Faces   Points  Surface topology
                   inlet       16       34  ok (non-closed singly connected)
                  outlet       16       34  ok (non-closed singly connected)
                  bottom      897     1247  ok (non-closed singly connected)
                     top      897     1247  ok (non-closed singly connected)
                   front    12754    13237  ok (non-closed singly connected)
                    back    12754    13237  ok (non-closed singly connected)
                cylinder      992     1116  ok (non-closed singly connected)
                    ".*"    28326    28452      ok (closed singly connected)


Checking faceZone topology for multiply connected surfaces...
    No faceZones found.

Checking basic cellZone addressing...
    No cellZones found.

Checking basic pointZone addressing...
               PointZone  PointsBoundingBox
            frozenPoints       0(1e+150 1e+150 1e+150) (-1e+150 -1e+150 -1e+150)

Checking geometry...
    Overall domain bounding box (-0.12 -0.012 -0.005) (0.36 0.012 0.005)
    Mesh has 2 geometric (non-empty/wedge) directions (1 1 0)
    Mesh has 2 solution (non-empty) directions (1 1 0)
 ***Number of edges not aligned with or perpendicular to non-empty directions: 9929
  <<Writing 15382 points on non-aligned edges to set nonAlignedEdges
    Boundary openness (-3.691511445e-19 6.19591555e-16 1.399852226e-14) OK.
    Max cell openness = 6.800626518e-16 OK.
    Max aspect ratio = 9.377878291 OK.
    Minimum face area = 5.155885973e-09. Maximum face area = 2.508457625e-05.  Face area magnitudes OK.
    Min volume = 6.444912461e-12. Max volume = 4.787835116e-08.  Total volume = 0.0001140696106.  Cell volumes OK.
    Mesh non-orthogonality Max: 62.2589883 average: 7.223025303
    Non-orthogonality check OK.
    Face pyramids OK.
    Max skewness = 0.3596595152 OK.
    Coupled point location match (average 0) OK.

Failed 1 mesh checks.

End

