/*---------------------------------------------------------------------------*\
| =========                 |                                                 |
| \\      /  F ield         | OpenFOAM: The Open Source CFD Toolbox           |
|  \\    /   O peration     | Version:  2512                                  |
|   \\  /    A nd           | Website:  www.openfoam.com                      |
|    \\/     M anipulation  |                                                 |
\*---------------------------------------------------------------------------*/
Build  : _87ed40d256-20251219 OPENFOAM=2512 version=v2512
Arch   : "LSB;label=32;scalar=64"
Exec   : snappyHexMesh -overwrite
Date   : Apr 03 2026
Time   : 14:48:09
Host   : DESKTOP-EJKBDEA
PID    : 1661
I/O    : uncollated
Case   : /mnt/c/openfoam-case/VV_cases/V1_solver/long_medium_Re160
nProcs : 1
trapFpe: Floating point exception trapping enabled (FOAM_SIGFPE).
memory pool : not available
fileModificationChecking : Monitoring run-time modified files using timeStampMaster (fileModificationSkew 5, maxFileModificationPolls 20)
allowSystemOperations : Allowing user-supplied system call operations

// * * * * * * * * * * * * * * * * * * * * * * * * * * * * * * * * * * * * * //
Create time

Create mesh for time = 0

Read mesh in = 0.04 s

Overall mesh bounding box  : (-0.12 -0.012 -0.005) (0.36 0.012 0.005)
Relative tolerance         : 1e-06
Absolute matching distance : 4.807036509e-07

Reading refinement surfaces.
Read refinement surfaces in = 0 s

Reading refinement shells.
Refinement level 2 for all cells inside nearCylinder
Refinement level 1 for all cells inside wakeBox
Read refinement shells in = 0 s

Setting refinement level of surface to be consistent with shells.
Checked shell refinement in = 0 s

Reading features.
Read features in = 0 s


Determining initial surface intersections
-----------------------------------------

Edge intersection testing:
    Number of edges             : 9420
    Number of edges to retest   : 0
    Number of intersected edges : 0
Edge intersection testing:
    Number of edges             : 9420
    Number of edges to retest   : 9420
    Number of intersected edges : 20
Calculated surface intersections in = 0.02 s

Initial mesh : cells:2304  faces:9420  points:5018
Cells per refinement level:
    0	2304
Setting refinement level of surface to be consistent with curvature.
Checked curvature refinement in = 0 s


Adding patches for surface regions
----------------------------------

Patch Type                Region                        
----- ----                ------                        
cylinder:

6     wall                cylinder                      

Added patches in = 0 s

Edge intersection testing:
    Number of edges             : 9420
    Number of edges to retest   : 0
    Number of intersected edges : 20
Decomposition method none [1]

Refinement phase
----------------

Found point (-0.114 0 0) in cell 962 on processor 0

Surface refinement iteration 0
------------------------------

Marked for refinement due to surface intersection          : 28 cells.
Determined cells to refine in = 0 s
Selected for refinement : 28 cells (out of 2304)
Edge intersection testing:
    Number of edges             : 10152
    Number of edges to retest   : 974
    Number of intersected edges : 88
Refined mesh in = 0.02 s
After refinement surface refinement iteration 0 : cells:2500  faces:10152  points:5378
Cells per refinement level:
    0	2276
    1	224

Surface refinement iteration 1
------------------------------

Marked for refinement due to surface intersection          : 120 cells.
Determined cells to refine in = 0 s
Selected for refinement : 132 cells (out of 2500)
Edge intersection testing:
    Number of edges             : 13410
    Number of edges to retest   : 4206
    Number of intersected edges : 352
Refined mesh in = 0.01 s
After refinement surface refinement iteration 1 : cells:3424  faces:13410  points:6834
Cells per refinement level:
    0	2264
    1	200
    2	960

Surface refinement iteration 2
------------------------------

Marked for refinement due to surface intersection          : 496 cells.
Determined cells to refine in = 0 s
Selected for refinement : 560 cells (out of 3424)
Edge intersection testing:
    Number of edges             : 26700
    Number of edges to retest   : 17336
    Number of intersected edges : 1376
Refined mesh in = 0.04 s
After refinement surface refinement iteration 2 : cells:7344  faces:26700  points:12370
Cells per refinement level:
    0	2256
    1	208
    2	912
    3	3968

Surface refinement iteration 3
------------------------------

Marked for refinement due to surface intersection          : 0 cells.
Determined cells to refine in = 0 s
Selected for refinement : 0 cells (out of 7344)
Stopping refining since too few cells selected.


Removing mesh beyond surface intersections
------------------------------------------

Setting cellZones according to locationsInMesh:
Location : (-0.114 0 0)
    cellZone : none

For cellZone none found point (-0.114 0 0) in global region 0 out of 2 regions.
--> FOAM Warning : 
    From void Foam::meshRefinement::nearestFace(const Foam::labelUList&, const Foam::bitSet&, Foam::autoPtr<Foam::mapDistribute>&, Foam::labelList&, Foam::label) const
    in file meshRefinement/meshRefinement.C at line 526
    Did not visit some faces, e.g. face 0 at (-0.1175 -0.011 0)
Keeping all cells containing inside points
Selected for keeping : 6436 cells.
Edge intersection testing:
    Number of edges             : 23876
    Number of edges to retest   : 1088
    Number of intersected edges : 1376

Shell refinement iteration 0
----------------------------

Marked for refinement due to distance to explicit features : 0 cells.
Marked for refinement due to refinement shells             : 924 cells.
Determined cells to refine in = 0.04 s
Selected for internal refinement : 988 cells (out of 6436)
Edge intersection testing:
    Number of edges             : 47480
    Number of edges to retest   : 31804
    Number of intersected edges : 1376
Refined mesh in = 0.09 s
After refinement shell refinement iteration 0 : cells:13352  faces:47480  points:21228
Cells per refinement level:
    0	1464
    1	6304
    2	1584
    3	4000

Shell refinement iteration 1
----------------------------

Marked for refinement due to distance to explicit features : 0 cells.
Marked for refinement due to refinement shells             : 3520 cells.
Determined cells to refine in = 0.01 s
Selected for internal refinement : 3532 cells (out of 13352)
Edge intersection testing:
    Number of edges             : 127415
    Number of edges to retest   : 94675
    Number of intersected edges : 1376
Refined mesh in = 0.16 s
After refinement shell refinement iteration 1 : cells:38076  faces:127415  points:51790
Cells per refinement level:
    0	1452
    1	2880
    2	29744
    3	4000

Shell refinement iteration 2
----------------------------

Marked for refinement due to distance to explicit features : 0 cells.
Marked for refinement due to refinement shells             : 0 cells.
Determined cells to refine in = 0.02 s
Selected for internal refinement : 0 cells (out of 38076)
Stopping refining since too few cells selected.


Dangling coarse cells refinement iteration 0
--------------------------------------------

Determined cells to refine in = 0 s
Selected for refinement : 0 cells (out of 38076)
Stopping refining since too few cells selected.


Dangling coarse cells refinement iteration 0
--------------------------------------------

Determined cells to refine in = 0.01 s
Selected for refinement : 0 cells (out of 38076)
Stopping refining since too few cells selected.


Refinement transition refinement iteration 0
--------------------------------------------

Determined cells to refine in = 0.01 s
Selected for refinement : 0 cells (out of 38076)
Stopping refining since too few cells selected.


Splitting mesh at surface intersections
---------------------------------------

Introducing baffles for 1376 faces that are intersected by the surface.

Setting cellZones according to locationsInMesh:
Location : (-0.114 0 0)
    cellZone : none

For cellZone none found point (-0.114 0 0) in global region 0 out of 2 regions.
Edge intersection testing:
    Number of edges             : 128791
    Number of edges to retest   : 8852
    Number of intersected edges : 2752
Created baffles in = 0.12 s


After introducing baffles : cells:38076  faces:128791  points:51790
Cells per refinement level:
    0	1452
    1	2880
    2	29744
    3	4000

Introducing baffles to block off problem cells
----------------------------------------------

markFacesOnProblemCells : marked 1955 additional internal faces to be converted into baffles.
Analyzed problem cells in = 0.07 s


Introducing baffles to delete problem cells.

Edge intersection testing:
    Number of edges             : 130746
    Number of edges to retest   : 6582
    Number of intersected edges : 2752
Created baffles in = 0.08 s


After introducing baffles : cells:38076  faces:130746  points:51790
Cells per refinement level:
    0	1452
    1	2880
    2	29744
    3	4000
Setting cellZones according to locationsInMesh:
Location : (-0.114 0 0)
    cellZone : none

For cellZone none found point (-0.114 0 0) in global region 0 out of 1008 regions.
Edge intersection testing:
    Number of edges             : 130746
    Number of edges to retest   : 10114
    Number of intersected edges : 2752

Remove unreachable sections of mesh
-----------------------------------

Keeping all cells containing points 1((-0.114 0 0))
Selected for keeping : 36500 cells.
Edge intersection testing:
    Number of edges             : 122486
    Number of edges to retest   : 0
    Number of intersected edges : 1376
Split mesh in = 0.17 s


After subsetting : cells:36500  faces:122486  points:50013
Cells per refinement level:
    0	1452
    1	2880
    2	29736
    3	2432

Introducing zones for interfaces
--------------------------------

Setting cellZones according to locationsInMesh:
Location : (-0.114 0 0)
    cellZone : none

For cellZone none found point (-0.114 0 0) in global region 0 out of 1 regions.
Setting faceZones according to neighbouring cellZones:

Edge intersection testing:
    Number of edges             : 122486
    Number of edges to retest   : 0
    Number of intersected edges : 1376

Handling cells with snap problems
---------------------------------

Introducing baffles for 1376 faces that are intersected by the surface.

Setting cellZones according to locationsInMesh:
Location : (-0.114 0 0)
    cellZone : none

For cellZone none found point (-0.114 0 0) in global region 0 out of 1 regions.
Edge intersection testing:
    Number of edges             : 122486
    Number of edges to retest   : 4508
    Number of intersected edges : 1376
Created baffles in = 0.16 s


After introducing baffles : cells:36500  faces:122486  points:50013
Cells per refinement level:
    0	1452
    1	2880
    2	29736
    3	2432

Introducing baffles to block off problem cells
----------------------------------------------

markFacesOnProblemCells : marked 0 additional internal faces to be converted into baffles.
Analyzed problem cells in = 0.06 s


Introducing baffles to delete problem cells.

Created baffles in = 0 s


After introducing baffles : cells:36500  faces:122486  points:50013
Cells per refinement level:
    0	1452
    1	2880
    2	29736
    3	2432
Setting cellZones according to locationsInMesh:
Location : (-0.114 0 0)
    cellZone : none

For cellZone none found point (-0.114 0 0) in global region 0 out of 1 regions.
Edge intersection testing:
    Number of edges             : 122486
    Number of edges to retest   : 4508
    Number of intersected edges : 1376

Remove unreachable sections of mesh
-----------------------------------

Split mesh in = 0.1 s


After subsetting : cells:36500  faces:122486  points:50013
Cells per refinement level:
    0	1452
    1	2880
    2	29736
    3	2432

Merge free-standing baffles
---------------------------

freeStandingBaffles : detected 0 free-standing baffles out of 0

Detected free-standing baffles : 0
Merged free-standing baffles in = 0.03 s


dupNonManifoldPoints : Found : 0 non-manifold points (out of 50013)
Detected unsplittable baffles : 0

Merge refined boundary faces
----------------------------

Merging 0 sets of faces.

No faces merged ...

Merging all points on surface that
- are used by only two boundary faces and
- make an angle with a cosine of more than 0.7071067812.

No straight edges simplified and no points removed ...
Refined mesh : cells:36500  faces:122486  points:50013
Cells per refinement level:
    0	1452
    1	2880
    2	29736
    3	2432
Writing mesh to time constant
Wrote mesh in = 0.21 s.
Mesh refined in = 1.5 s.

Morphing phase
--------------

Duplicating 0 points on faceZones of type boundary
Snapping to features in 10 iterations ...
Constructing mesh displacer ...
Using mesh parameters 
{
    maxNonOrtho     65;
    maxBoundarySkewness 20;
    maxInternalSkewness 4;
    maxConcave      80;
    minVol          1e-13;
    minTetQuality   1e-30;
    minArea         -1;
    minTwist        0.02;
    minDeterminant  0.001;
    minFaceWeight   0.02;
    minVolRatio     0.01;
    minTriangleTwist -1;
    nSmoothScale    4;
    errorReduction  0.75;
    relaxed
    {
        maxNonOrtho     75;
    }
}


Checking initial mesh ...
Checking faces in error :
    non-orthogonality > 65  degrees                        : 0
    faces with face pyramid volume < 1e-13                 : 0
    faces with face-decomposition tet quality < 1e-30      : 0
    faces with concavity > 80  degrees                     : 0
    faces with skewness > 4   (internal) or 20  (boundary) : 0
    faces with interpolation weights (0..1)  < 0.02        : 0
    faces with volume ratio of neighbour cells < 0.01      : 0
    faces with face twist < 0.02                           : 0
    faces on cells with determinant < 0.001                : 0
Detected 0 illegal faces (concave, zero area or negative cell pyramid volume)
Checked initial mesh in = 0.38 s


Smoothing patch points ...
Smoothing iteration 0
Found 0 non-manifold point(s).

Scaling iteration 0
Moving mesh using displacement scaling : min:1 max:1
Correcting 2-D mesh motion--> FOAM Warning : 
    From void Foam::twoDPointCorrector::calcAddressing() const
    in file twoDPointCorrector/twoDPointCorrector.C at line 153
    the number of vertices in the geometry is odd - this should not be the case for a 2-D case. Please check the geometry.
--> FOAM Warning : 
    From void Foam::twoDPointCorrector::calcAddressing() const
    in file twoDPointCorrector/twoDPointCorrector.C at line 162
    The number of points in the mesh is not equal to twice the number of edges normal to the plane - this may be OK only for wedge geometries.
    Please check the geometry or adjust the orthogonality tolerance.

Number of normal edges: 38853 number of points: 50013
 ...done
Checking faces in error :
    non-orthogonality > 65  degrees                        : 0
    faces with face pyramid volume < 1e-13                 : 0
    faces with face-decomposition tet quality < 1e-30      : 0
    faces with concavity > 80  degrees                     : 0
    faces with skewness > 4   (internal) or 20  (boundary) : 0
    faces with interpolation weights (0..1)  < 0.02        : 0
    faces with volume ratio of neighbour cells < 0.01      : 0
    faces with face twist < 0.02                           : 0
    faces on cells with determinant < 0.001                : 0
Successfully moved mesh

Smoothing iteration 1
Found 0 non-manifold point(s).

Scaling iteration 0
Moving mesh using displacement scaling : min:1 max:1
Correcting 2-D mesh motion ...done
Checking faces in error :
    non-orthogonality > 65  degrees                        : 0
    faces with face pyramid volume < 1e-13                 : 0
    faces with face-decomposition tet quality < 1e-30      : 0
    faces with concavity > 80  degrees                     : 0
    faces with skewness > 4   (internal) or 20  (boundary) : 0
    faces with interpolation weights (0..1)  < 0.02        : 0
    faces with volume ratio of neighbour cells < 0.01      : 0
    faces with face twist < 0.02                           : 0
    faces on cells with determinant < 0.001                : 0
Successfully moved mesh

Smoothing iteration 2
Found 0 non-manifold point(s).

Scaling iteration 0
Moving mesh using displacement scaling : min:1 max:1
Correcting 2-D mesh motion ...done
Checking faces in error :
    non-orthogonality > 65  degrees                        : 0
    faces with face pyramid volume < 1e-13                 : 0
    faces with face-decomposition tet quality < 1e-30      : 0
    faces with concavity > 80  degrees                     : 0
    faces with skewness > 4   (internal) or 20  (boundary) : 0
    faces with interpolation weights (0..1)  < 0.02        : 0
    faces with volume ratio of neighbour cells < 0.01      : 0
    faces with face twist < 0.02                           : 0
    faces on cells with determinant < 0.001                : 0
Successfully moved mesh

Smoothing iteration 3
Found 0 non-manifold point(s).

Scaling iteration 0
Moving mesh using displacement scaling : min:1 max:1
Correcting 2-D mesh motion ...done
Checking faces in error :
    non-orthogonality > 65  degrees                        : 0
    faces with face pyramid volume < 1e-13                 : 0
    faces with face-decomposition tet quality < 1e-30      : 0
    faces with concavity > 80  degrees                     : 0
    faces with skewness > 4   (internal) or 20  (boundary) : 0
    faces with interpolation weights (0..1)  < 0.02        : 0
    faces with volume ratio of neighbour cells < 0.01      : 0
    faces with face twist < 0.02                           : 0
    faces on cells with determinant < 0.001                : 0
Successfully moved mesh

Smoothing iteration 4
Found 0 non-manifold point(s).

Scaling iteration 0
Moving mesh using displacement scaling : min:1 max:1
Correcting 2-D mesh motion ...done
Checking faces in error :
    non-orthogonality > 65  degrees                        : 0
    faces with face pyramid volume < 1e-13                 : 0
    faces with face-decomposition tet quality < 1e-30      : 0
    faces with concavity > 80  degrees                     : 0
    faces with skewness > 4   (internal) or 20  (boundary) : 0
    faces with interpolation weights (0..1)  < 0.02        : 0
    faces with volume ratio of neighbour cells < 0.01      : 0
    faces with face twist < 0.02                           : 0
    faces on cells with determinant < 0.001                : 0
Successfully moved mesh

Patch points smoothed in = 79.69 s



Morph iteration 0
-----------------
Calculating patchDisplacement as distance to nearest surface point ...
    non-zone points : attract to nearest of all non-zone surfaces
    zone points     : attract to zone surface only

Wanted displacement : average:4.692800679e-05 min:7.672201686e-07 max:0.0001138765924
Calculated surface displacement in = 0 s


Detecting near surfaces ...
Overriding nearest with intersection of close gaps at 0 out of 1548 points.
Overriding displacement on features :
   implicit features    : true
   explicit features    : false
   multi-patch features : false

Attraction:
    linear   : max:(-5.125742418e-05 0.0001016885183 0) avg:(-1.753345455e-08 -7.570570302e-09 0)
    feature  : max:(-5.255111429e-05 0.0001000660182 -0) avg:(-1.454623132e-08 -7.578800095e-09 0)
Feature analysis : total master points :1548 of which attracted to :
    feature point   : 0
    feature edge    : 0
    nearest surface : 1548
    rest            : 0

Smoothing displacement ...
Iteration 0
Iteration 10
Iteration 20
Iteration 30
Iteration 40
Iteration 50
Iteration 60
Iteration 70
Iteration 80
Iteration 90
Displacement smoothed in = 0.2 s


Moving mesh ...

Iteration 0
Moving mesh using displacement scaling : min:1 max:1
Correcting 2-D mesh motion ...done
Checking faces in error :
    non-orthogonality > 65  degrees                        : 0
    faces with face pyramid volume < 1e-13                 : 0
    faces with face-decomposition tet quality < 1e-30      : 0
    faces with concavity > 80  degrees                     : 0
    faces with skewness > 4   (internal) or 20  (boundary) : 0
    faces with interpolation weights (0..1)  < 0.02        : 0
    faces with volume ratio of neighbour cells < 0.01      : 0
    faces with face twist < 0.02                           : 0
    faces on cells with determinant < 0.001                : 0
Successfully moved mesh
Moved mesh in = 25.37 s



Morph iteration 1
-----------------
Calculating patchDisplacement as distance to nearest surface point ...
    non-zone points : attract to nearest of all non-zone surfaces
    zone points     : attract to zone surface only

Wanted displacement : average:4.269354155e-05 min:2.343469267e-07 max:0.0001045222444
Calculated surface displacement in = 0 s


Detecting near surfaces ...
Overriding nearest with intersection of close gaps at 0 out of 1548 points.
Overriding displacement on features :
   implicit features    : true
   explicit features    : false
   multi-patch features : false

Attraction:
    linear   : max:(4.704011323e-05 -9.333877714e-05 0) avg:(-1.582474428e-08 -6.802322362e-09 0)
    feature  : max:(4.819654424e-05 -9.178646369e-05 -0) avg:(-1.204912598e-08 -6.647107621e-09 0)
Feature analysis : total master points :1548 of which attracted to :
    feature point   : 0
    feature edge    : 0
    nearest surface : 1548
    rest            : 0

Smoothing displacement ...
Iteration 0
Iteration 10
Iteration 20
Iteration 30
Iteration 40
Iteration 50
Iteration 60
Iteration 70
Iteration 80
Iteration 90
Displacement smoothed in = 0.19 s


Moving mesh ...

Iteration 0
Moving mesh using displacement scaling : min:1 max:1
Correcting 2-D mesh motion ...done
Checking faces in error :
    non-orthogonality > 65  degrees                        : 0
    faces with face pyramid volume < 1e-13                 : 0
    faces with face-decomposition tet quality < 1e-30      : 0
    faces with concavity > 80  degrees                     : 0
    faces with skewness > 4   (internal) or 20  (boundary) : 0
    faces with interpolation weights (0..1)  < 0.02        : 0
    faces with volume ratio of neighbour cells < 0.01      : 0
    faces with face twist < 0.02                           : 0
    faces on cells with determinant < 0.001                : 0
Successfully moved mesh
Moved mesh in = 17.01 s



Morph iteration 2
-----------------
Calculating patchDisplacement as distance to nearest surface point ...
    non-zone points : attract to nearest of all non-zone surfaces
    zone points     : attract to zone surface only

Wanted displacement : average:3.53362314e-05 min:1.022660001e-06 max:8.818870208e-05
Calculated surface displacement in = 0 s


Detecting near surfaces ...
Overriding nearest with intersection of close gaps at 0 out of 1548 points.
Overriding displacement on features :
   implicit features    : true
   explicit features    : false
   multi-patch features : false

Attraction:
    linear   : max:(-3.968515986e-05 -7.875490627e-05 0) avg:(-1.26581625e-08 -5.425931337e-09 0)
    feature  : max:(-4.06007295e-05 -7.732698378e-05 -0) avg:(-1.090032688e-08 -5.288255381e-09 0)
Feature analysis : total master points :1548 of which attracted to :
    feature point   : 0
    feature edge    : 0
    nearest surface : 1548
    rest            : 0

Smoothing displacement ...
Iteration 0
Iteration 10
Iteration 20
Iteration 30
Iteration 40
Iteration 50
Iteration 60
Iteration 70
Iteration 80
Iteration 90
Displacement smoothed in = 0.16 s


Moving mesh ...

Iteration 0
Moving mesh using displacement scaling : min:1 max:1
Correcting 2-D mesh motion ...done
Checking faces in error :
    non-orthogonality > 65  degrees                        : 0
    faces with face pyramid volume < 1e-13                 : 0
    faces with face-decomposition tet quality < 1e-30      : 0
    faces with concavity > 80  degrees                     : 0
    faces with skewness > 4   (internal) or 20  (boundary) : 0
    faces with interpolation weights (0..1)  < 0.02        : 0
    faces with volume ratio of neighbour cells < 0.01      : 0
    faces with face twist < 0.02                           : 0
    faces on cells with determinant < 0.001                : 0
Successfully moved mesh
Moved mesh in = 16.79 s



Morph iteration 3
-----------------
Calculating patchDisplacement as distance to nearest surface point ...
    non-zone points : attract to nearest of all non-zone surfaces
    zone points     : attract to zone surface only

Wanted displacement : average:2.640739201e-05 min:2.631088823e-06 max:6.767931526e-05
Calculated surface displacement in = 0 s


Detecting near surfaces ...
Overriding nearest with intersection of close gaps at 0 out of 1548 points.
Overriding displacement on features :
   implicit features    : true
   explicit features    : false
   multi-patch features : false

Attraction:
    linear   : max:(-3.045413293e-05 -6.044034664e-05 0) avg:(-8.852260284e-09 -3.789218935e-09 0)
    feature  : max:(-3.106627031e-05 -5.917059577e-05 -0) avg:(-1.060642446e-08 -2.544009211e-09 0)
Feature analysis : total master points :1548 of which attracted to :
    feature point   : 0
    feature edge    : 0
    nearest surface : 1548
    rest            : 0

--> FOAM Warning : Displacement (1.978541001e-08 -1.569384726e-13 -5.608172249e-10) at mesh point 6877 coord (0.005989737436 7.986495846e-15 -0.005) points through the surrounding patch faces
Smoothing displacement ...
Iteration 0
Iteration 10
Iteration 20
Iteration 30
Iteration 40
Iteration 50
Iteration 60
Iteration 70
Iteration 80
Iteration 90
Displacement smoothed in = 0.18 s


Moving mesh ...

Iteration 0
Moving mesh using displacement scaling : min:1 max:1
Correcting 2-D mesh motion ...done
Checking faces in error :
    non-orthogonality > 65  degrees                        : 0
    faces with face pyramid volume < 1e-13                 : 0
    faces with face-decomposition tet quality < 1e-30      : 0
    faces with concavity > 80  degrees                     : 0
    faces with skewness > 4   (internal) or 20  (boundary) : 0
    faces with interpolation weights (0..1)  < 0.02        : 0
    faces with volume ratio of neighbour cells < 0.01      : 0
    faces with face twist < 0.02                           : 0
    faces on cells with determinant < 0.001                : 0
Successfully moved mesh
Moved mesh in = 17.21 s



Morph iteration 4
-----------------
Calculating patchDisplacement as distance to nearest surface point ...
    non-zone points : attract to nearest of all non-zone surfaces
    zone points     : attract to zone surface only

Wanted displacement : average:1.766175964e-05 min:1.362683794e-08 max:4.658379185e-05
Calculated surface displacement in = 0 s


Detecting near surfaces ...
Overriding nearest with intersection of close gaps at 0 out of 1548 points.
Overriding displacement on features :
   implicit features    : true
   explicit features    : false
   multi-patch features : false

Attraction:
    linear   : max:(2.096088743e-05 -4.160157282e-05 0) avg:(-5.308414817e-09 -2.270226947e-09 0)
    feature  : max:(2.126053783e-05 -4.049517071e-05 -0) avg:(-4.379931997e-09 -2.185785621e-09 0)
Feature analysis : total master points :1548 of which attracted to :
    feature point   : 0
    feature edge    : 0
    nearest surface : 1548
    rest            : 0

--> FOAM Warning : Displacement (1.099449955e-07 -2.530927657e-07 -5.954915271e-10) at mesh point 5037 coord (0.005129340522 -0.00309501835 -0.005) points through the surrounding patch faces
Smoothing displacement ...
Iteration 0
Iteration 10
Iteration 20
Iteration 30
Iteration 40
Iteration 50
Iteration 60
Iteration 70
Iteration 80
Iteration 90
Displacement smoothed in = 0.15 s


Moving mesh ...

Iteration 0
Moving mesh using displacement scaling : min:1 max:1
Correcting 2-D mesh motion ...done
Checking faces in error :
    non-orthogonality > 65  degrees                        : 0
    faces with face pyramid volume < 1e-13                 : 0
    faces with face-decomposition tet quality < 1e-30      : 0
    faces with concavity > 80  degrees                     : 0
    faces with skewness > 4   (internal) or 20  (boundary) : 0
    faces with interpolation weights (0..1)  < 0.02        : 0
    faces with volume ratio of neighbour cells < 0.01      : 0
    faces with face twist < 0.02                           : 0
    faces on cells with determinant < 0.001                : 0
Successfully moved mesh
Moved mesh in = 16.52 s



Morph iteration 5
-----------------
Calculating patchDisplacement as distance to nearest surface point ...
    non-zone points : attract to nearest of all non-zone surfaces
    zone points     : attract to zone surface only

Wanted displacement : average:1.104677433e-05 min:1.063567556e-08 max:2.824093855e-05
Calculated surface displacement in = 0 s


Detecting near surfaces ...
Overriding nearest with intersection of close gaps at 0 out of 1548 points.
Overriding displacement on features :
   implicit features    : true
   explicit features    : false
   multi-patch features : false

Attraction:
    linear   : max:(1.270625756e-05 -2.522105527e-05 0) avg:(-2.653743463e-09 -1.134596091e-09 0)
    feature  : max:(2.499591054e-05 -1.143613915e-05 -0) avg:(-2.717344893e-09 -1.158066213e-09 0)
Feature analysis : total master points :1548 of which attracted to :
    feature point   : 0
    feature edge    : 0
    nearest surface : 1548
    rest            : 0

--> FOAM Warning : Displacement (-1.763671988e-07 -1.359138466e-07 -1.812312084e-10) at mesh point 6844 coord (-0.001374688553 -0.005834270205 -0.005) points through the surrounding patch faces
Smoothing displacement ...
Iteration 0
Iteration 10
Iteration 20
Iteration 30
Iteration 40
Iteration 50
Iteration 60
Iteration 70
Iteration 80
Iteration 90
Displacement smoothed in = 0.16 s


Moving mesh ...

Iteration 0
Moving mesh using displacement scaling : min:1 max:1
Correcting 2-D mesh motion ...done
Checking faces in error :
    non-orthogonality > 65  degrees                        : 0
    faces with face pyramid volume < 1e-13                 : 0
    faces with face-decomposition tet quality < 1e-30      : 0
    faces with concavity > 80  degrees                     : 0
    faces with skewness > 4   (internal) or 20  (boundary) : 0
    faces with interpolation weights (0..1)  < 0.02        : 0
    faces with volume ratio of neighbour cells < 0.01      : 0
    faces with face twist < 0.02                           : 0
    faces on cells with determinant < 0.001                : 0
Successfully moved mesh
Moved mesh in = 17.26 s



Morph iteration 6
-----------------
Calculating patchDisplacement as distance to nearest surface point ...
    non-zone points : attract to nearest of all non-zone surfaces
    zone points     : attract to zone surface only

Wanted displacement : average:6.120912103e-06 min:6.958593015e-07 max:1.60809349e-05
Calculated surface displacement in = 0 s


Detecting near surfaces ...
Overriding nearest with intersection of close gaps at 0 out of 1548 points.
Overriding displacement on features :
   implicit features    : true
   explicit features    : false
   multi-patch features : false

Attraction:
    linear   : max:(-1.47275706e-05 -6.457176749e-06 0) avg:(-1.061511875e-09 -4.541515292e-10 0)
    feature  : max:(-1.39358194e-05 -6.375317621e-06 -0) avg:(-1.735894909e-09 -4.762795646e-10 0)
Feature analysis : total master points :1548 of which attracted to :
    feature point   : 0
    feature edge    : 0
    nearest surface : 1548
    rest            : 0

--> FOAM Warning : Displacement (-6.05115817e-07 -2.094122379e-06 -6.934791109e-11) at mesh point 6844 coord (-0.001374896209 -0.005834440427 -0.005) points through the surrounding patch faces
Smoothing displacement ...
Iteration 0
Iteration 10
Iteration 20
Iteration 30
Iteration 40
Iteration 50
Iteration 60
Iteration 70
Iteration 80
Iteration 90
Displacement smoothed in = 0.18 s


Moving mesh ...

Iteration 0
Moving mesh using displacement scaling : min:1 max:1
Correcting 2-D mesh motion ...done
Checking faces in error :
    non-orthogonality > 65  degrees                        : 0
    faces with face pyramid volume < 1e-13                 : 0
    faces with face-decomposition tet quality < 1e-30      : 0
    faces with concavity > 80  degrees                     : 0
    faces with skewness > 4   (internal) or 20  (boundary) : 0
    faces with interpolation weights (0..1)  < 0.02        : 0
    faces with volume ratio of neighbour cells < 0.01      : 0
    faces with face twist < 0.02                           : 0
    faces on cells with determinant < 0.001                : 0
Successfully moved mesh
Moved mesh in = 16.92 s



Morph iteration 7
-----------------
Calculating patchDisplacement as distance to nearest surface point ...
    non-zone points : attract to nearest of all non-zone surfaces
    zone points     : attract to zone surface only

Wanted displacement : average:2.783232932e-06 min:4.71586614e-10 max:7.434736421e-06
Calculated surface displacement in = 0 s


Detecting near surfaces ...
Overriding nearest with intersection of close gaps at 0 out of 1548 points.
Overriding displacement on features :
   implicit features    : true
   explicit features    : false
   multi-patch features : false

Attraction:
    linear   : max:(-6.809131731e-06 -2.985134958e-06 0) avg:(-3.184057086e-10 -1.365470593e-10 0)
    feature  : max:(-6.925294102e-06 2.047170754e-06 0) avg:(1.39309533e-10 -1.47768789e-10 0)
Feature analysis : total master points :1548 of which attracted to :
    feature point   : 0
    feature edge    : 0
    nearest surface : 1548
    rest            : 0

--> FOAM Warning : Displacement (-1.580503464e-16 7.216055914e-07 -4.097954198e-12) at mesh point 1764 coord (-4.194186041e-17 0.00599859983 -0.005) points through the surrounding patch faces
Smoothing displacement ...
Iteration 0
Iteration 10
Iteration 20
Iteration 30
Iteration 40
Iteration 50
Iteration 60
Iteration 70
Iteration 80
Iteration 90
Displacement smoothed in = 0.19 s


Moving mesh ...

Iteration 0
Moving mesh using displacement scaling : min:1 max:1
Correcting 2-D mesh motion ...done
Checking faces in error :
    non-orthogonality > 65  degrees                        : 0
    faces with face pyramid volume < 1e-13                 : 0
    faces with face-decomposition tet quality < 1e-30      : 0
    faces with concavity > 80  degrees                     : 0
    faces with skewness > 4   (internal) or 20  (boundary) : 0
    faces with interpolation weights (0..1)  < 0.02        : 0
    faces with volume ratio of neighbour cells < 0.01      : 0
    faces with face twist < 0.02                           : 0
    faces on cells with determinant < 0.001                : 0
Successfully moved mesh
Moved mesh in = 18.08 s



Morph iteration 8
-----------------
Calculating patchDisplacement as distance to nearest surface point ...
    non-zone points : attract to nearest of all non-zone surfaces
    zone points     : attract to zone surface only

Wanted displacement : average:9.3618352e-07 min:1.321206694e-07 max:2.46316991e-06
Calculated surface displacement in = 0 s


Detecting near surfaces ...
Overriding nearest with intersection of close gaps at 0 out of 1548 points.
Overriding displacement on features :
   implicit features    : true
   explicit features    : false
   multi-patch features : false

Attraction:
    linear   : max:(-2.255913503e-06 -9.889692986e-07 0) avg:(-6.361814213e-11 -2.743633838e-11 0)
    feature  : max:(-2.949249853e-06 8.718431324e-07 0) avg:(3.78666956e-10 -8.618954439e-11 0)
Feature analysis : total master points :1548 of which attracted to :
    feature point   : 0
    feature edge    : 0
    nearest surface : 1548
    rest            : 0

--> FOAM Warning : Displacement (-3.959359865e-17 5.270913306e-07 -6.681231433e-13) at mesh point 1764 coord (-1.945458314e-16 0.005999325704 -0.005) points through the surrounding patch faces
Smoothing displacement ...
Iteration 0
Iteration 10
Iteration 20
Iteration 30
Iteration 40
Iteration 50
Iteration 60
Iteration 70
Iteration 80
Iteration 90
Displacement smoothed in = 0.17 s


Moving mesh ...

Iteration 0
Moving mesh using displacement scaling : min:1 max:1
Correcting 2-D mesh motion ...done
Checking faces in error :
    non-orthogonality > 65  degrees                        : 0
    faces with face pyramid volume < 1e-13                 : 0
    faces with face-decomposition tet quality < 1e-30      : 0
    faces with concavity > 80  degrees                     : 0
    faces with skewness > 4   (internal) or 20  (boundary) : 0
    faces with interpolation weights (0..1)  < 0.02        : 0
    faces with volume ratio of neighbour cells < 0.01      : 0
    faces with face twist < 0.02                           : 0
    faces on cells with determinant < 0.001                : 0
Successfully moved mesh
Moved mesh in = 16.5 s



Morph iteration 9
-----------------
Calculating patchDisplacement as distance to nearest surface point ...
    non-zone points : attract to nearest of all non-zone surfaces
    zone points     : attract to zone surface only

Wanted displacement : average:1.675677328e-07 min:1.250004337e-08 max:4.388958768e-07
Calculated surface displacement in = 0.01 s


Detecting near surfaces ...
Overriding nearest with intersection of close gaps at 0 out of 1548 points.
Overriding displacement on features :
   implicit features    : true
   explicit features    : false
   multi-patch features : false

Attraction:
    linear   : max:(4.189040509e-07 -1.309541398e-07 0) avg:(-6.341643469e-12 -2.768742072e-12 0)
    feature  : max:(5.498524036e-08 2.134874012e-06 0) avg:(1.293667366e-10 -8.168876932e-12 0)
Feature analysis : total master points :1548 of which attracted to :
    feature point   : 0
    feature edge    : 0
    nearest surface : 1548
    rest            : 0

--> FOAM Warning : Displacement (-5.494551974e-21 1.463722967e-07 0) at mesh point 1764 coord (-2.25223682e-16 0.005999853628 -0.005) points through the surrounding patch faces
Smoothing displacement ...
Iteration 0
Iteration 10
Iteration 20
Iteration 30
Iteration 40
Iteration 50
Iteration 60
Iteration 70
Iteration 80
Iteration 90
Displacement smoothed in = 0.14 s


Moving mesh ...

Iteration 0
Moving mesh using displacement scaling : min:1 max:1
Correcting 2-D mesh motion ...done
Checking faces in error :
    non-orthogonality > 65  degrees                        : 0
    faces with face pyramid volume < 1e-13                 : 0
    faces with face-decomposition tet quality < 1e-30      : 0
    faces with concavity > 80  degrees                     : 0
    faces with skewness > 4   (internal) or 20  (boundary) : 0
    faces with interpolation weights (0..1)  < 0.02        : 0
    faces with volume ratio of neighbour cells < 0.01      : 0
    faces with face twist < 0.02                           : 0
    faces on cells with determinant < 0.001                : 0
Successfully moved mesh
Moved mesh in = 16.02 s


Repatching faces according to nearest surface ...
Repatched 0 faces in = 0.02 s


Edge intersection testing:
    Number of edges             : 122486
    Number of edges to retest   : 84729
    Number of intersected edges : 1376
Merging 384 sets of faces.

Edge intersection testing:
    Number of edges             : 122102
    Number of edges to retest   : 1584
    Number of intersected edges : 992

Undo iteration 0
----------------
Checking faces in error :
    non-orthogonality > 65  degrees                        : 0
    faces with face pyramid volume < 1e-13                 : 0
    faces with face-decomposition tet quality < 1e-30      : 0
    faces with concavity > 80  degrees                     : 0
    faces with skewness > 4   (internal) or 20  (boundary) : 0
    faces with interpolation weights (0..1)  < 0.02        : 0
    faces with volume ratio of neighbour cells < 0.01      : 0
    faces with face twist < 0.02                           : 0
    faces on cells with determinant < 0.001                : 0

Merging all points on surface that
- are used by only two boundary faces and
- make an angle with a cosine of more than 0.8660254038.

Removing 432 straight edge points ...

Edge intersection testing:
    Number of edges             : 122102
    Number of edges to retest   : 1584
    Number of intersected edges : 992

Undo iteration 0
----------------
Checking faces in error :
    non-orthogonality > 65  degrees                        : 0
    faces with face pyramid volume < 1e-13                 : 0
    faces with face-decomposition tet quality < 1e-30      : 0
    faces with concavity > 80  degrees                     : 0
    faces with skewness > 4   (internal) or 20  (boundary) : 0
    faces with interpolation weights (0..1)  < 0.02        : 0
    faces with volume ratio of neighbour cells < 0.01      : 0
    faces with face twist < 0.02                           : 0
    faces on cells with determinant < 0.001                : 0
Snapped mesh : cells:36500  faces:122102  points:49581
Cells per refinement level:
    0	1452
    1	2880
    2	29736
    3	2432
Writing mesh to time constant
Wrote mesh in = 0.21 s.
Mesh snapped in = 259.86 s.
Layer specification as
- final layer thickness ('finalLayerThickness')
- expansion ratio ('expansionRatio')

Shrinking and layer addition phase
----------------------------------

Using mesh parameters 
{
    maxNonOrtho     65;
    maxBoundarySkewness 20;
    maxInternalSkewness 4;
    maxConcave      80;
    minVol          1e-13;
    minTetQuality   1e-30;
    minArea         -1;
    minTwist        0.02;
    minDeterminant  0.001;
    minFaceWeight   0.02;
    minVolRatio     0.01;
    minTriangleTwist -1;
    nSmoothScale    4;
    errorReduction  0.75;
    relaxed
    {
        maxNonOrtho     75;
    }
}



Merging all faces of a cell
---------------------------
    - which are on the same patch
    - which make an angle < 60 degrees (cos:0.5)
    - as long as the resulting face doesn't become concave by more than 90 degrees
      (0=straight, 180=fully concave)

Merging 0 sets of faces.

No faces merged ...

Merging all points on surface that
- are used by only two boundary faces and
- make an angle with a cosine of more than 0.5.

No straight edges simplified and no points removed ...

Checking mesh manifoldness ...

Checking initial mesh ...
Checking faces in error :
    non-orthogonality > 65  degrees                        : 0
    faces with face pyramid volume < 1e-13                 : 0
    faces with face-decomposition tet quality < 1e-30      : 0
    faces with concavity > 80  degrees                     : 0
    faces with skewness > 4   (internal) or 20  (boundary) : 0
    faces with interpolation weights (0..1)  < 0.02        : 0
    faces with volume ratio of neighbour cells < 0.01      : 0
    faces with face twist < 0.02                           : 0
    faces on cells with determinant < 0.001                : 0
Detected 0 illegal faces (concave, zero area or negative cell pyramid volume)
Duplicating 0 points on faceZones of type boundary

Handling points with inconsistent layer specification ...
dupNonManifoldPoints : Found : 0 non-manifold points (out of 49581)

Handling points with inconsistent layer specification ...

Handling non-manifold points ...

Checking patch manifoldness ...
Outside of local patch is multiply connected across edges or points at 0 points.
Set displacement to zero for all 0 non-manifold points

Handling feature edges (angle < 60) ...
Set displacement to zero for points on 0 feature edges

Handling cells with warped patch faces ...
Set displacement to zero on 0 warped faces since layer would be > 0.5 of the size of the bounding box.

patch    faces    layers avg thickness[m]
                         near-wall overall
-----    -----    ------ --------- -------
bottom   897      2      0.00018   0.000396
top      897      2      0.00018   0.000396
cylinder 992      6      2.51e-05  0.000249


Outer iteration : 0
-------------------

Adding in total 0 inter-processor patches to handle extrusion of non-manifold processor boundaries.
Selecting externalDisplacementMeshMover displacementMedialAxis
displacementMedialAxis : Calculating distance to Medial Axis ...
fieldSmoother : Smoothing normals ...
    Iteration 0   residual 0.001733773806
displacementMedialAxis : Inserting points on patch inlet if angle to nearest layer patch > 30 degrees.
displacementMedialAxis : Inserting points on patch outlet if angle to nearest layer patch > 30 degrees.
fieldSmoother : Smoothing normals in interior ...
    Iteration 0   residual 0.03864528874

Layer addition iteration 0
--------------------------

Determining displacement for added points according to pointNormal ...
Detected 0 points with point normal pointing through faces.
Reset displacement at 0 points to average of surrounding points.

displacementMedialAxis : Smoothing using Medial Axis ...
displacementMedialAxis : Reducing layer thickness at 0 nodes where thickness to medial axis distance is large 
displacementMedialAxis : Removing isolated regions ...
- if partially extruded faces make angle < 30
- if exclusively surrounded by non-extruded faces
displacementMedialAxis : Number of isolated points extrusion stopped : 0
fieldSmoother : Smoothing field ...
    Iteration 0   residual 2.493900269e-07
displacementMedialAxis : Moving mesh ...
displacementMedialAxis : Iteration 0
Moving mesh using displacement scaling : min:1 max:1
Correcting 2-D mesh motion--> FOAM Warning : 
    From void Foam::twoDPointCorrector::calcAddressing() const
    in file twoDPointCorrector/twoDPointCorrector.C at line 153
    the number of vertices in the geometry is odd - this should not be the case for a 2-D case. Please check the geometry.
--> FOAM Warning : 
    From void Foam::twoDPointCorrector::calcAddressing() const
    in file twoDPointCorrector/twoDPointCorrector.C at line 162
    The number of points in the mesh is not equal to twice the number of edges normal to the plane - this may be OK only for wedge geometries.
    Please check the geometry or adjust the orthogonality tolerance.

Number of normal edges: 38469 number of points: 49581
 ...done
Checking faces in error :
    non-orthogonality > 65  degrees                        : 0
    faces with face pyramid volume < 1e-13                 : 0
    faces with face-decomposition tet quality < 1e-30      : 0
    faces with concavity > 80  degrees                     : 0
    faces with skewness > 4   (internal) or 20  (boundary) : 0
    faces with interpolation weights (0..1)  < 0.02        : 0
    faces with volume ratio of neighbour cells < 0.01      : 0
    faces with face twist < 0.02                           : 0
    faces on cells with determinant < 0.001                : 0
displacementMedialAxis : Successfully moved mesh
displacementMedialAxis : Finished moving mesh ...
truncateDisplacement : Unextruded 0 faces due to non-consecutive vertices being extruded.
truncateDisplacement : Unextruded 0 faces due to stringed edges with inconsistent extrusion.

Setting up information for layer truncation ...
Detected 0 baffles across faceZones of type internal


Checking mesh with layer ...
Checking faces in error :
    non-orthogonality > 65  degrees                        : 0
    faces with face pyramid volume < 1e-13                 : 0
    faces with face-decomposition tet quality < 1e-30      : 0
    faces with concavity > 80  degrees                     : 0
    faces with skewness > 4   (internal) or 20  (boundary) : 0
    faces with interpolation weights (0..1)  < 0.02        : 0
    faces with volume ratio of neighbour cells < 0.01      : 0
    faces with face twist < 0.02                           : 0
    faces on cells with determinant < 0.001                : 0
Detected 0 illegal faces (concave, zero area or negative cell pyramid volume)
Extruding 2786 out of 2786 faces (100%). Removed extrusion at 0 faces.
Added 9540 out of 9540 cells (100%).
Edge intersection testing:
    Number of edges             : 152862
    Number of edges to retest   : 0
    Number of intersected edges : 6944
Mesh with layers : cells:46040  faces:152862  points:61265

patch    faces        layers        overall thickness
                  target   mesh     [m]       [%]
-----    -----    -----    ----     ---       ---
bottom   897      2        2        0.000349  99.6    
top      897      2        2        0.000349  99.6    
cylinder 992      6        6        0.000249  100     

Writing 9540 added cells to cellSet addedCells
Writing 6754 faces inside added layer to faceSet layerFaces
Layer mesh : cells:46040  faces:152862  points:61265
Cells per refinement level:
    0	1936
    1	3360
    2	32360
    3	8384
Writing mesh to time constant
Wrote mesh in = 0.23 s.
Layers added in = 16.5 s.
Checking final mesh ...
Checking faces in error :
    non-orthogonality > 65  degrees                        : 0
    faces with face pyramid volume < 1e-13                 : 0
    faces with face-decomposition tet quality < 1e-30      : 0
    faces with concavity > 80  degrees                     : 0
    faces with skewness > 4   (internal) or 20  (boundary) : 0
    faces with interpolation weights (0..1)  < 0.02        : 0
    faces with volume ratio of neighbour cells < 0.01      : 0
    faces with face twist < 0.02                           : 0
    faces on cells with determinant < 0.001                : 0
Finished meshing without any errors
Finished meshing in = 278.04 s.
End

