/*---------------------------------------------------------------------------*\
| =========                 |                                                 |
| \\      /  F ield         | OpenFOAM: The Open Source CFD Toolbox           |
|  \\    /   O peration     | Version:  2512                                  |
|   \\  /    A nd           | Website:  www.openfoam.com                      |
|    \\/     M anipulation  |                                                 |
\*---------------------------------------------------------------------------*/
Build  : _87ed40d256-20251219 OPENFOAM=2512 version=v2512
Arch   : "LSB;label=32;scalar=64"
Exec   : checkMesh
Date   : Apr 03 2026
Time   : 14:45:08
Host   : DESKTOP-EJKBDEA
PID    : 2117
I/O    : uncollated
Case   : /mnt/c/openfoam-case/VV_cases/V1_solver/baseline_coarse_Re160
nProcs : 1
trapFpe: Floating point exception trapping enabled (FOAM_SIGFPE).
memory pool : not available
fileModificationChecking : Monitoring run-time modified files using timeStampMaster (fileModificationSkew 5, maxFileModificationPolls 20)
allowSystemOperations : Allowing user-supplied system call operations

// * * * * * * * * * * * * * * * * * * * * * * * * * * * * * * * * * * * * * //
Create time

Create mesh for time = 0

Check mesh...

Time = 0

Mesh stats 
    points:           13748
    faces:            30692
    internal faces:   21190
    cells:            8598
    faces per cell:   6.034193999
    boundary patches: 7
    point zones:      1
    face zones:       0
    cell zones:       0

Overall number of cells of each type:
    hexahedra:     8374
    prisms:        88
    wedges:        0
    pyramids:      0
    tet wedges:    0
    tetrahedra:    0
    polyhedra:     136
    Breakdown of polyhedra by number of faces:
        faces   number of cells
            6   32
            7   4
            9   76
           12   22
           15   2

Checking topology...
    Boundary definition OK.
 ***Total number of faces on empty patches is not divisible by the number of cells in the mesh. Hence this mesh is not 1D or 2D.
    Cell to face addressing OK.
    Point usage OK.
    Upper triangular ordering OK.
    Face vertices OK.
    Number of regions: 1 (OK).

Checking patch topology for multiply connected surfaces...
                   Patch    Faces   Points  Surface topology
                   inlet       14       30  ok (non-closed singly connected)
                  outlet       14       30  ok (non-closed singly connected)
                  bottom      306      491  ok (non-closed singly connected)
                     top      306      491  ok (non-closed singly connected)
                   front     4308     4560  ok (non-closed singly connected)
                    back     4314     4566  ok (non-closed singly connected)
                cylinder      240      300  ok (non-closed singly connected)
                    ".*"     9502     9556      ok (closed singly connected)


Checking faceZone topology for multiply connected surfaces...
    No faceZones found.

Checking basic cellZone addressing...
    No cellZones found.

Checking basic pointZone addressing...
               PointZone  PointsBoundingBox
            frozenPoints       0(1e+150 1e+150 1e+150) (-1e+150 -1e+150 -1e+150)

Checking geometry...
    Overall domain bounding box (-0.096 -0.012 -0.005) (0.24 0.012 0.005)
    Mesh has 2 geometric (non-empty/wedge) directions (1 1 0)
    Mesh has 2 solution (non-empty) directions (1 1 0)
 ***Number of edges not aligned with or perpendicular to non-empty directions: 1294
  <<Writing 2231 points on non-aligned edges to set nonAlignedEdges
    Boundary openness (-7.57596895e-19 -2.036853366e-16 3.267758907e-15) OK.
    Max cell openness = 5.707722367e-16 OK.
    Max aspect ratio = 10.31349496 OK.
    Minimum face area = 2.155654035e-08. Maximum face area = 2.802013545e-05.  Face area magnitudes OK.
    Min volume = 5.389135089e-11. Max volume = 5.494922623e-08.  Total volume = 7.951161425e-05.  Cell volumes OK.
    Mesh non-orthogonality Max: 64.6620201 average: 8.487186973
    Non-orthogonality check OK.
    Face pyramids OK.
    Max skewness = 0.3657742393 OK.
    Coupled point location match (average 0) OK.

Failed 1 mesh checks.

End

