/*---------------------------------------------------------------------------*\
| =========                 |                                                 |
| \\      /  F ield         | OpenFOAM: The Open Source CFD Toolbox           |
|  \\    /   O peration     | Version:  2512                                  |
|   \\  /    A nd           | Website:  www.openfoam.com                      |
|    \\/     M anipulation  |                                                 |
\*---------------------------------------------------------------------------*/
Build  : _87ed40d256-20251219 OPENFOAM=2512 version=v2512
Arch   : "LSB;label=32;scalar=64"
Exec   : snappyHexMesh -overwrite
Date   : Apr 03 2026
Time   : 14:44:50
Host   : DESKTOP-EJKBDEA
PID    : 2112
I/O    : uncollated
Case   : /mnt/c/openfoam-case/VV_cases/V1_solver/baseline_coarse_Re160
nProcs : 1
trapFpe: Floating point exception trapping enabled (FOAM_SIGFPE).
memory pool : not available
fileModificationChecking : Monitoring run-time modified files using timeStampMaster (fileModificationSkew 5, maxFileModificationPolls 20)
allowSystemOperations : Allowing user-supplied system call operations

// * * * * * * * * * * * * * * * * * * * * * * * * * * * * * * * * * * * * * //
Create time

Create mesh for time = 0

Read mesh in = 0.03 s

Overall mesh bounding box  : (-0.096 -0.012 -0.005) (0.24 0.012 0.005)
Relative tolerance         : 1e-06
Absolute matching distance : 3.37004451e-07

Reading refinement surfaces.
Read refinement surfaces in = 0 s

Reading refinement shells.
Refinement level 1 for all cells inside nearCylinder
Refinement level 1 for all cells inside wakeBox
Read refinement shells in = 0 s

Setting refinement level of surface to be consistent with shells.
Checked shell refinement in = 0 s

Reading features.
Read features in = 0 s


Determining initial surface intersections
-----------------------------------------

Edge intersection testing:
    Number of edges             : 5892
    Number of edges to retest   : 0
    Number of intersected edges : 0
Edge intersection testing:
    Number of edges             : 5892
    Number of edges to retest   : 5892
    Number of intersected edges : 20
Calculated surface intersections in = 0.02 s

Initial mesh : cells:1440  faces:5892  points:3146
Cells per refinement level:
    0	1440
Setting refinement level of surface to be consistent with curvature.
Checked curvature refinement in = 0 s


Adding patches for surface regions
----------------------------------

Patch Type                Region                        
----- ----                ------                        
cylinder:

6     wall                cylinder                      

Added patches in = 0 s

Edge intersection testing:
    Number of edges             : 5892
    Number of edges to retest   : 0
    Number of intersected edges : 20
Decomposition method none [1]

Refinement phase
----------------

Found point (-0.09 0 0) in cell 602 on processor 0

Surface refinement iteration 0
------------------------------

Marked for refinement due to surface intersection          : 28 cells.
Determined cells to refine in = 0 s
Selected for refinement : 28 cells (out of 1440)
Edge intersection testing:
    Number of edges             : 6624
    Number of edges to retest   : 974
    Number of intersected edges : 84
Refined mesh in = 0.01 s
After refinement surface refinement iteration 0 : cells:1636  faces:6624  points:3506
Cells per refinement level:
    0	1412
    1	224

Surface refinement iteration 1
------------------------------

Marked for refinement due to surface intersection          : 112 cells.
Determined cells to refine in = 0 s
Selected for refinement : 120 cells (out of 1636)
Edge intersection testing:
    Number of edges             : 9591
    Number of edges to retest   : 3838
    Number of intersected edges : 328
Refined mesh in = 0.01 s
After refinement surface refinement iteration 1 : cells:2476  faces:9591  points:4836
Cells per refinement level:
    0	1404
    1	176
    2	896

Surface refinement iteration 2
------------------------------

Marked for refinement due to surface intersection          : 0 cells.
Determined cells to refine in = 0 s
Selected for refinement : 0 cells (out of 2476)
Stopping refining since too few cells selected.


Removing mesh beyond surface intersections
------------------------------------------

Setting cellZones according to locationsInMesh:
Location : (-0.09 0 0)
    cellZone : none

For cellZone none found point (-0.09 0 0) in global region 0 out of 2 regions.
--> FOAM Warning : 
    From void Foam::meshRefinement::nearestFace(const Foam::labelUList&, const Foam::bitSet&, Foam::autoPtr<Foam::mapDistribute>&, Foam::labelList&, Foam::label) const
    in file meshRefinement/meshRefinement.C at line 526
    Did not visit some faces, e.g. face 0 at (-0.0932 -0.011 0)
Keeping all cells containing inside points
Selected for keeping : 2298 cells.
Edge intersection testing:
    Number of edges             : 9021
    Number of edges to retest   : 296
    Number of intersected edges : 328

Shell refinement iteration 0
----------------------------

Marked for refinement due to distance to explicit features : 0 cells.
Marked for refinement due to refinement shells             : 702 cells.
Determined cells to refine in = 0.01 s
Selected for internal refinement : 720 cells (out of 2298)
Edge intersection testing:
    Number of edges             : 26454
    Number of edges to retest   : 21558
    Number of intersected edges : 328
Refined mesh in = 0.02 s
After refinement shell refinement iteration 0 : cells:7338  faces:26454  points:12046
Cells per refinement level:
    0	696
    1	5714
    2	928

Shell refinement iteration 1
----------------------------

Marked for refinement due to distance to explicit features : 0 cells.
Marked for refinement due to refinement shells             : 0 cells.
Determined cells to refine in = 0 s
Selected for internal refinement : 0 cells (out of 7338)
Stopping refining since too few cells selected.


Dangling coarse cells refinement iteration 0
--------------------------------------------

Determined cells to refine in = 0.01 s
Selected for refinement : 0 cells (out of 7338)
Stopping refining since too few cells selected.


Dangling coarse cells refinement iteration 0
--------------------------------------------

Determined cells to refine in = 0 s
Selected for refinement : 0 cells (out of 7338)
Stopping refining since too few cells selected.


Refinement transition refinement iteration 0
--------------------------------------------

Determined cells to refine in = 0.02 s
Selected for refinement : 0 cells (out of 7338)
Stopping refining since too few cells selected.


Splitting mesh at surface intersections
---------------------------------------

Introducing baffles for 328 faces that are intersected by the surface.

Setting cellZones according to locationsInMesh:
Location : (-0.09 0 0)
    cellZone : none

For cellZone none found point (-0.09 0 0) in global region 0 out of 2 regions.
Edge intersection testing:
    Number of edges             : 26782
    Number of edges to retest   : 2164
    Number of intersected edges : 656
Created baffles in = 0.02 s


After introducing baffles : cells:7338  faces:26782  points:12046
Cells per refinement level:
    0	696
    1	5714
    2	928

Introducing baffles to block off problem cells
----------------------------------------------

markFacesOnProblemCells : marked 546 additional internal faces to be converted into baffles.
Analyzed problem cells in = 0.01 s


Introducing baffles to delete problem cells.

Edge intersection testing:
    Number of edges             : 27328
    Number of edges to retest   : 1872
    Number of intersected edges : 656
Created baffles in = 0.02 s


After introducing baffles : cells:7338  faces:27328  points:12046
Cells per refinement level:
    0	696
    1	5714
    2	928
Setting cellZones according to locationsInMesh:
Location : (-0.09 0 0)
    cellZone : none

For cellZone none found point (-0.09 0 0) in global region 0 out of 313 regions.
Edge intersection testing:
    Number of edges             : 27328
    Number of edges to retest   : 2468
    Number of intersected edges : 656

Remove unreachable sections of mesh
-----------------------------------

Keeping all cells containing points 1((-0.09 0 0))
Selected for keeping : 7026 cells.
Edge intersection testing:
    Number of edges             : 25456
    Number of edges to retest   : 0
    Number of intersected edges : 328
Split mesh in = 0.04 s


After subsetting : cells:7026  faces:25456  points:11676
Cells per refinement level:
    0	696
    1	5714
    2	616

Introducing zones for interfaces
--------------------------------

Setting cellZones according to locationsInMesh:
Location : (-0.09 0 0)
    cellZone : none

For cellZone none found point (-0.09 0 0) in global region 0 out of 1 regions.
Setting faceZones according to neighbouring cellZones:

Edge intersection testing:
    Number of edges             : 25456
    Number of edges to retest   : 0
    Number of intersected edges : 328

Handling cells with snap problems
---------------------------------

Introducing baffles for 328 faces that are intersected by the surface.

Setting cellZones according to locationsInMesh:
Location : (-0.09 0 0)
    cellZone : none

For cellZone none found point (-0.09 0 0) in global region 0 out of 1 regions.
Edge intersection testing:
    Number of edges             : 25456
    Number of edges to retest   : 1124
    Number of intersected edges : 328
Created baffles in = 0.04 s


After introducing baffles : cells:7026  faces:25456  points:11676
Cells per refinement level:
    0	696
    1	5714
    2	616

Introducing baffles to block off problem cells
----------------------------------------------

markFacesOnProblemCells : marked 0 additional internal faces to be converted into baffles.
Analyzed problem cells in = 0.02 s


Introducing baffles to delete problem cells.

Created baffles in = 0 s


After introducing baffles : cells:7026  faces:25456  points:11676
Cells per refinement level:
    0	696
    1	5714
    2	616
Setting cellZones according to locationsInMesh:
Location : (-0.09 0 0)
    cellZone : none

For cellZone none found point (-0.09 0 0) in global region 0 out of 1 regions.
Edge intersection testing:
    Number of edges             : 25456
    Number of edges to retest   : 1124
    Number of intersected edges : 328

Remove unreachable sections of mesh
-----------------------------------

Split mesh in = 0.03 s


After subsetting : cells:7026  faces:25456  points:11676
Cells per refinement level:
    0	696
    1	5714
    2	616

Merge free-standing baffles
---------------------------

freeStandingBaffles : detected 0 free-standing baffles out of 0

Detected free-standing baffles : 0
Merged free-standing baffles in = 0.01 s


dupNonManifoldPoints : Found : 0 non-manifold points (out of 11676)
Detected unsplittable baffles : 0

Merge refined boundary faces
----------------------------

Merging 0 sets of faces.

No faces merged ...

Merging all points on surface that
- are used by only two boundary faces and
- make an angle with a cosine of more than 0.7071067812.

No straight edges simplified and no points removed ...
Refined mesh : cells:7026  faces:25456  points:11676
Cells per refinement level:
    0	696
    1	5714
    2	616
Writing mesh to time constant
Wrote mesh in = 0.06 s.
Mesh refined in = 0.36 s.

Morphing phase
--------------

Duplicating 0 points on faceZones of type boundary
Snapping to features in 10 iterations ...
Constructing mesh displacer ...
Using mesh parameters 
{
    maxNonOrtho     65;
    maxBoundarySkewness 20;
    maxInternalSkewness 4;
    maxConcave      80;
    minVol          1e-13;
    minTetQuality   1e-30;
    minArea         -1;
    minTwist        0.02;
    minDeterminant  0.001;
    minFaceWeight   0.02;
    minVolRatio     0.01;
    minTriangleTwist -1;
    nSmoothScale    4;
    errorReduction  0.75;
    relaxed
    {
        maxNonOrtho     75;
    }
}


Checking initial mesh ...
Checking faces in error :
    non-orthogonality > 65  degrees                        : 0
    faces with face pyramid volume < 1e-13                 : 0
    faces with face-decomposition tet quality < 1e-30      : 0
    faces with concavity > 80  degrees                     : 0
    faces with skewness > 4   (internal) or 20  (boundary) : 0
    faces with interpolation weights (0..1)  < 0.02        : 0
    faces with volume ratio of neighbour cells < 0.01      : 0
    faces with face twist < 0.02                           : 0
    faces on cells with determinant < 0.001                : 0
Detected 0 illegal faces (concave, zero area or negative cell pyramid volume)
Checked initial mesh in = 0.11 s


Smoothing patch points ...
Smoothing iteration 0
Found 0 non-manifold point(s).

Scaling iteration 0
Moving mesh using displacement scaling : min:1 max:1
Correcting 2-D mesh motion--> FOAM Warning : 
    From void Foam::twoDPointCorrector::calcAddressing() const
    in file twoDPointCorrector/twoDPointCorrector.C at line 162
    The number of points in the mesh is not equal to twice the number of edges normal to the plane - this may be OK only for wedge geometries.
    Please check the geometry or adjust the orthogonality tolerance.

Number of normal edges: 7694 number of points: 11676
 ...done
Checking faces in error :
    non-orthogonality > 65  degrees                        : 0
    faces with face pyramid volume < 1e-13                 : 0
    faces with face-decomposition tet quality < 1e-30      : 0
    faces with concavity > 80  degrees                     : 0
    faces with skewness > 4   (internal) or 20  (boundary) : 0
    faces with interpolation weights (0..1)  < 0.02        : 0
    faces with volume ratio of neighbour cells < 0.01      : 0
    faces with face twist < 0.02                           : 0
    faces on cells with determinant < 0.001                : 0
Successfully moved mesh

Smoothing iteration 1
Found 0 non-manifold point(s).

Scaling iteration 0
Moving mesh using displacement scaling : min:1 max:1
Correcting 2-D mesh motion ...done
Checking faces in error :
    non-orthogonality > 65  degrees                        : 0
    faces with face pyramid volume < 1e-13                 : 0
    faces with face-decomposition tet quality < 1e-30      : 0
    faces with concavity > 80  degrees                     : 0
    faces with skewness > 4   (internal) or 20  (boundary) : 0
    faces with interpolation weights (0..1)  < 0.02        : 0
    faces with volume ratio of neighbour cells < 0.01      : 0
    faces with face twist < 0.02                           : 0
    faces on cells with determinant < 0.001                : 0
Successfully moved mesh

Smoothing iteration 2
Found 0 non-manifold point(s).

Scaling iteration 0
Moving mesh using displacement scaling : min:1 max:1
Correcting 2-D mesh motion ...done
Checking faces in error :
    non-orthogonality > 65  degrees                        : 0
    faces with face pyramid volume < 1e-13                 : 0
    faces with face-decomposition tet quality < 1e-30      : 0
    faces with concavity > 80  degrees                     : 0
    faces with skewness > 4   (internal) or 20  (boundary) : 0
    faces with interpolation weights (0..1)  < 0.02        : 0
    faces with volume ratio of neighbour cells < 0.01      : 0
    faces with face twist < 0.02                           : 0
    faces on cells with determinant < 0.001                : 0
Successfully moved mesh

Smoothing iteration 3
Found 0 non-manifold point(s).

Scaling iteration 0
Moving mesh using displacement scaling : min:1 max:1
Correcting 2-D mesh motion ...done
Checking faces in error :
    non-orthogonality > 65  degrees                        : 0
    faces with face pyramid volume < 1e-13                 : 0
    faces with face-decomposition tet quality < 1e-30      : 0
    faces with concavity > 80  degrees                     : 0
    faces with skewness > 4   (internal) or 20  (boundary) : 0
    faces with interpolation weights (0..1)  < 0.02        : 0
    faces with volume ratio of neighbour cells < 0.01      : 0
    faces with face twist < 0.02                           : 0
    faces on cells with determinant < 0.001                : 0
Successfully moved mesh

Smoothing iteration 4
Found 0 non-manifold point(s).

Scaling iteration 0
Moving mesh using displacement scaling : min:1 max:1
Correcting 2-D mesh motion ...done
Checking faces in error :
    non-orthogonality > 65  degrees                        : 0
    faces with face pyramid volume < 1e-13                 : 0
    faces with face-decomposition tet quality < 1e-30      : 0
    faces with concavity > 80  degrees                     : 0
    faces with skewness > 4   (internal) or 20  (boundary) : 0
    faces with interpolation weights (0..1)  < 0.02        : 0
    faces with volume ratio of neighbour cells < 0.01      : 0
    faces with face twist < 0.02                           : 0
    faces on cells with determinant < 0.001                : 0
Successfully moved mesh

Patch points smoothed in = 4.37 s



Morph iteration 0
-----------------
Calculating patchDisplacement as distance to nearest surface point ...
    non-zone points : attract to nearest of all non-zone surfaces
    zone points     : attract to zone surface only

Wanted displacement : average:8.943450626e-05 min:1.785332392e-06 max:0.0003186185546
Calculated surface displacement in = 0 s


Detecting near surfaces ...
Overriding nearest with intersection of close gaps at 0 out of 410 points.
Overriding displacement on features :
   implicit features    : true
   explicit features    : false
   multi-patch features : false

Attraction:
    linear   : max:(-0.000317670854 2.455629909e-05 0) avg:(-2.64112195e-05 -1.840236001e-07 0)
    feature  : max:(-0.0003121721094 3.587924686e-05 -0) avg:(-2.628162135e-05 -2.720292753e-07 0)
Feature analysis : total master points :410 of which attracted to :
    feature point   : 0
    feature edge    : 0
    nearest surface : 410
    rest            : 0

--> FOAM Warning : Displacement (-6.627712014e-07 8.812602869e-07 5.132164161e-10) at mesh point 3945 coord (-0.005727975731 -0.001952676546 -0.0025) points through the surrounding patch faces
Smoothing displacement ...
Iteration 0
Iteration 10
Iteration 20
Iteration 30
Iteration 40
Iteration 50
Iteration 60
Iteration 70
Iteration 80
Iteration 90
Displacement smoothed in = 0.03 s


Moving mesh ...

Iteration 0
Moving mesh using displacement scaling : min:1 max:1
Correcting 2-D mesh motion ...done
Checking faces in error :
    non-orthogonality > 65  degrees                        : 0
    faces with face pyramid volume < 1e-13                 : 0
    faces with face-decomposition tet quality < 1e-30      : 0
    faces with concavity > 80  degrees                     : 0
    faces with skewness > 4   (internal) or 20  (boundary) : 0
    faces with interpolation weights (0..1)  < 0.02        : 0
    faces with volume ratio of neighbour cells < 0.01      : 0
    faces with face twist < 0.02                           : 0
    faces on cells with determinant < 0.001                : 0
Successfully moved mesh
Moved mesh in = 0.68 s



Morph iteration 1
-----------------
Calculating patchDisplacement as distance to nearest surface point ...
    non-zone points : attract to nearest of all non-zone surfaces
    zone points     : attract to zone surface only

Wanted displacement : average:8.22831005e-05 min:1.110819285e-06 max:0.0002875235161
Calculated surface displacement in = 0 s


Detecting near surfaces ...
Overriding nearest with intersection of close gaps at 0 out of 410 points.
Overriding displacement on features :
   implicit features    : true
   explicit features    : false
   multi-patch features : false

Attraction:
    linear   : max:(-0.0002866648027 2.220502581e-05 0) avg:(-2.385047707e-05 -1.662533473e-07 0)
    feature  : max:(-0.0002812936052 3.237868075e-05 -0) avg:(-2.377574762e-05 -3.55010164e-07 0)
Feature analysis : total master points :410 of which attracted to :
    feature point   : 0
    feature edge    : 0
    nearest surface : 410
    rest            : 0

--> FOAM Warning : Displacement (-6.71315459e-06 3.988832392e-07 -1.285071554e-10) at mesh point 4177 coord (-0.00579882673 -0.001486432783 -0.005) points through the surrounding patch faces
Smoothing displacement ...
Iteration 0
Iteration 10
Iteration 20
Iteration 30
Iteration 40
Iteration 50
Iteration 60
Iteration 70
Iteration 80
Iteration 90
Displacement smoothed in = 0.03 s


Moving mesh ...

Iteration 0
Moving mesh using displacement scaling : min:1 max:1
Correcting 2-D mesh motion ...done
Checking faces in error :
    non-orthogonality > 65  degrees                        : 0
    faces with face pyramid volume < 1e-13                 : 0
    faces with face-decomposition tet quality < 1e-30      : 0
    faces with concavity > 80  degrees                     : 0
    faces with skewness > 4   (internal) or 20  (boundary) : 0
    faces with interpolation weights (0..1)  < 0.02        : 0
    faces with volume ratio of neighbour cells < 0.01      : 0
    faces with face twist < 0.02                           : 0
    faces on cells with determinant < 0.001                : 0
Successfully moved mesh
Moved mesh in = 0.67 s



Morph iteration 2
-----------------
Calculating patchDisplacement as distance to nearest surface point ...
    non-zone points : attract to nearest of all non-zone surfaces
    zone points     : attract to zone surface only

Wanted displacement : average:6.903220223e-05 min:3.577119176e-07 max:0.0002389120092
Calculated surface displacement in = 0 s


Detecting near surfaces ...
Overriding nearest with intersection of close gaps at 0 out of 410 points.
Overriding displacement on features :
   implicit features    : true
   explicit features    : false
   multi-patch features : false

Attraction:
    linear   : max:(-0.0002381944751 1.850243654e-05 0) avg:(-1.921071805e-05 -1.339179709e-07 0)
    feature  : max:(-0.0002330191117 2.688194286e-05 -0) avg:(-1.926346021e-05 -3.242155596e-07 0)
Feature analysis : total master points :410 of which attracted to :
    feature point   : 0
    feature edge    : 0
    nearest surface : 410
    rest            : 0

--> FOAM Warning : Displacement (-7.426182332e-06 4.159330134e-07 -1.544074541e-10) at mesh point 4177 coord (-0.005805445773 -0.001486073567 -0.005) points through the surrounding patch faces
Smoothing displacement ...
Iteration 0
Iteration 10
Iteration 20
Iteration 30
Iteration 40
Iteration 50
Iteration 60
Iteration 70
Iteration 80
Iteration 90
Displacement smoothed in = 0.04 s


Moving mesh ...

Iteration 0
Moving mesh using displacement scaling : min:1 max:1
Correcting 2-D mesh motion ...done
Checking faces in error :
    non-orthogonality > 65  degrees                        : 0
    faces with face pyramid volume < 1e-13                 : 0
    faces with face-decomposition tet quality < 1e-30      : 0
    faces with concavity > 80  degrees                     : 0
    faces with skewness > 4   (internal) or 20  (boundary) : 0
    faces with interpolation weights (0..1)  < 0.02        : 0
    faces with volume ratio of neighbour cells < 0.01      : 0
    faces with face twist < 0.02                           : 0
    faces on cells with determinant < 0.001                : 0
Successfully moved mesh
Moved mesh in = 0.63 s



Morph iteration 3
-----------------
Calculating patchDisplacement as distance to nearest surface point ...
    non-zone points : attract to nearest of all non-zone surfaces
    zone points     : attract to zone surface only

Wanted displacement : average:5.299499845e-05 min:4.18519146e-07 max:0.0001771215212
Calculated surface displacement in = 0 s


Detecting near surfaces ...
Overriding nearest with intersection of close gaps at 0 out of 410 points.
Overriding displacement on features :
   implicit features    : true
   explicit features    : false
   multi-patch features : false

Attraction:
    linear   : max:(-0.0001765857779 -1.376576512e-05 0) avg:(-1.358916101e-05 -9.466245169e-08 0)
    feature  : max:(-0.0001723220022 -6.709267947e-06 -0) avg:(-1.365909559e-05 4.766704472e-08 0)
Feature analysis : total master points :410 of which attracted to :
    feature point   : 0
    feature edge    : 0
    nearest surface : 410
    rest            : 0

--> FOAM Warning : Displacement (-5.817055629e-06 4.47511214e-07 -1.153033272e-10) at mesh point 4177 coord (-0.005812715143 -0.001485705427 -0.005) points through the surrounding patch faces
Smoothing displacement ...
Iteration 0
Iteration 10
Iteration 20
Iteration 30
Iteration 40
Iteration 50
Iteration 60
Iteration 70
Iteration 80
Iteration 90
Displacement smoothed in = 0.03 s


Moving mesh ...

Iteration 0
Moving mesh using displacement scaling : min:1 max:1
Correcting 2-D mesh motion ...done
Checking faces in error :
    non-orthogonality > 65  degrees                        : 0
    faces with face pyramid volume < 1e-13                 : 0
    faces with face-decomposition tet quality < 1e-30      : 0
    faces with concavity > 80  degrees                     : 0
    faces with skewness > 4   (internal) or 20  (boundary) : 0
    faces with interpolation weights (0..1)  < 0.02        : 0
    faces with volume ratio of neighbour cells < 0.01      : 0
    faces with face twist < 0.02                           : 0
    faces on cells with determinant < 0.001                : 0
Successfully moved mesh
Moved mesh in = 0.69 s



Morph iteration 4
-----------------
Calculating patchDisplacement as distance to nearest surface point ...
    non-zone points : attract to nearest of all non-zone surfaces
    zone points     : attract to zone surface only

Wanted displacement : average:3.774840481e-05 min:4.599394605e-07 max:0.0001162440818
Calculated surface displacement in = 0 s


Detecting near surfaces ...
Overriding nearest with intersection of close gaps at 0 out of 410 points.
Overriding displacement on features :
   implicit features    : true
   explicit features    : false
   multi-patch features : false

Attraction:
    linear   : max:(-0.0001148904393 -1.768823066e-05 0) avg:(-8.273063941e-06 -5.750581502e-08 0)
    feature  : max:(-0.0001103101833 -2.106153881e-05 -0) avg:(-8.361009919e-06 3.792334338e-08 0)
Feature analysis : total master points :410 of which attracted to :
    feature point   : 0
    feature edge    : 0
    nearest surface : 410
    rest            : 0

--> FOAM Warning : Displacement (-2.622587904e-06 5.858318416e-07 -6.538146475e-11) at mesh point 4177 coord (-0.005818428757 -0.001485301175 -0.005) points through the surrounding patch faces
Smoothing displacement ...
Iteration 0
Iteration 10
Iteration 20
Iteration 30
Iteration 40
Iteration 50
Iteration 60
Iteration 70
Iteration 80
Iteration 90
Displacement smoothed in = 0.04 s


Moving mesh ...

Iteration 0
Moving mesh using displacement scaling : min:1 max:1
Correcting 2-D mesh motion ...done
Checking faces in error :
    non-orthogonality > 65  degrees                        : 0
    faces with face pyramid volume < 1e-13                 : 0
    faces with face-decomposition tet quality < 1e-30      : 0
    faces with concavity > 80  degrees                     : 0
    faces with skewness > 4   (internal) or 20  (boundary) : 0
    faces with interpolation weights (0..1)  < 0.02        : 0
    faces with volume ratio of neighbour cells < 0.01      : 0
    faces with face twist < 0.02                           : 0
    faces on cells with determinant < 0.001                : 0
Successfully moved mesh
Moved mesh in = 0.69 s



Morph iteration 5
-----------------
Calculating patchDisplacement as distance to nearest surface point ...
    non-zone points : attract to nearest of all non-zone surfaces
    zone points     : attract to zone surface only

Wanted displacement : average:2.449433873e-05 min:3.300619899e-07 max:6.772320729e-05
Calculated surface displacement in = 0 s


Detecting near surfaces ...
Overriding nearest with intersection of close gaps at 0 out of 410 points.
Overriding displacement on features :
   implicit features    : true
   explicit features    : false
   multi-patch features : false

Attraction:
    linear   : max:(-6.693260467e-05 -1.031790857e-05 0) avg:(-4.217197115e-06 -2.917450864e-08 0)
    feature  : max:(-6.271072585e-05 -1.197658708e-05 -0) avg:(-4.302278677e-06 -3.402627239e-08 0)
Feature analysis : total master points :410 of which attracted to :
    feature point   : 0
    feature edge    : 0
    nearest surface : 410
    rest            : 0

--> FOAM Warning : Displacement (-2.502957871e-05 6.266349022e-15 -1.062792203e-11) at mesh point 3959 coord (-0.00594714655 3.406298823e-15 -0.0025) points through the surrounding patch faces
Smoothing displacement ...
Iteration 0
Iteration 10
Iteration 20
Iteration 30
Iteration 40
Iteration 50
Iteration 60
Iteration 70
Iteration 80
Iteration 90
Displacement smoothed in = 0.04 s


Moving mesh ...

Iteration 0
Moving mesh using displacement scaling : min:1 max:1
Correcting 2-D mesh motion ...done
Checking faces in error :
    non-orthogonality > 65  degrees                        : 0
    faces with face pyramid volume < 1e-13                 : 0
    faces with face-decomposition tet quality < 1e-30      : 0
    faces with concavity > 80  degrees                     : 0
    faces with skewness > 4   (internal) or 20  (boundary) : 0
    faces with interpolation weights (0..1)  < 0.02        : 0
    faces with volume ratio of neighbour cells < 0.01      : 0
    faces with face twist < 0.02                           : 0
    faces on cells with determinant < 0.001                : 0
Successfully moved mesh
Moved mesh in = 0.71 s



Morph iteration 6
-----------------
Calculating patchDisplacement as distance to nearest surface point ...
    non-zone points : attract to nearest of all non-zone surfaces
    zone points     : attract to zone surface only

Wanted displacement : average:1.37205444e-05 min:9.689873905e-09 max:3.742367442e-05
Calculated surface displacement in = 0 s


Detecting near surfaces ...
Overriding nearest with intersection of close gaps at 0 out of 410 points.
Overriding displacement on features :
   implicit features    : true
   explicit features    : false
   multi-patch features : false

Attraction:
    linear   : max:(2.924386467e-05 2.335225442e-05 0) avg:(-1.729897981e-06 -1.185724493e-08 0)
    feature  : max:(2.701997481e-05 2.005390408e-05 -0) avg:(-1.815503098e-06 -1.942794803e-08 0)
Feature analysis : total master points :410 of which attracted to :
    feature point   : 0
    feature edge    : 0
    nearest surface : 410
    rest            : 0

--> FOAM Warning : Displacement (-1.624311568e-05 1.588972024e-15 -3.550231383e-11) at mesh point 3959 coord (-0.005972108756 9.908387638e-15 -0.0025) points through the surrounding patch faces
Smoothing displacement ...
Iteration 0
Iteration 10
Iteration 20
Iteration 30
Iteration 40
Iteration 50
Iteration 60
Iteration 70
Iteration 80
Iteration 90
Displacement smoothed in = 0.03 s


Moving mesh ...

Iteration 0
Moving mesh using displacement scaling : min:1 max:1
Correcting 2-D mesh motion ...done
Checking faces in error :
    non-orthogonality > 65  degrees                        : 0
    faces with face pyramid volume < 1e-13                 : 0
    faces with face-decomposition tet quality < 1e-30      : 0
    faces with concavity > 80  degrees                     : 0
    faces with skewness > 4   (internal) or 20  (boundary) : 0
    faces with interpolation weights (0..1)  < 0.02        : 0
    faces with volume ratio of neighbour cells < 0.01      : 0
    faces with face twist < 0.02                           : 0
    faces on cells with determinant < 0.001                : 0
Successfully moved mesh
Moved mesh in = 0.65 s



Morph iteration 7
-----------------
Calculating patchDisplacement as distance to nearest surface point ...
    non-zone points : attract to nearest of all non-zone surfaces
    zone points     : attract to zone surface only

Wanted displacement : average:6.249249212e-06 min:6.913378449e-07 max:1.6966605e-05
Calculated surface displacement in = 0 s


Detecting near surfaces ...
Overriding nearest with intersection of close gaps at 0 out of 410 points.
Overriding displacement on features :
   implicit features    : true
   explicit features    : false
   multi-patch features : false

Attraction:
    linear   : max:(1.325827935e-05 1.058695962e-05 0) avg:(-5.363101649e-07 -3.614598379e-09 0)
    feature  : max:(-1.703182823e-05 -7.17074342e-07 0) avg:(-5.936308003e-07 -9.973924382e-09 0)
Feature analysis : total master points :410 of which attracted to :
    feature point   : 0
    feature edge    : 0
    nearest surface : 410
    rest            : 0

--> FOAM Warning : Displacement (-8.228872718e-06 -3.477424647e-15 -1.297904862e-11) at mesh point 3959 coord (-0.005988319687 1.200535702e-14 -0.0025) points through the surrounding patch faces
Smoothing displacement ...
Iteration 0
Iteration 10
Iteration 20
Iteration 30
Iteration 40
Iteration 50
Iteration 60
Iteration 70
Iteration 80
Iteration 90
Displacement smoothed in = 0.03 s


Moving mesh ...

Iteration 0
Moving mesh using displacement scaling : min:1 max:1
Correcting 2-D mesh motion ...done
Checking faces in error :
    non-orthogonality > 65  degrees                        : 0
    faces with face pyramid volume < 1e-13                 : 0
    faces with face-decomposition tet quality < 1e-30      : 0
    faces with concavity > 80  degrees                     : 0
    faces with skewness > 4   (internal) or 20  (boundary) : 0
    faces with interpolation weights (0..1)  < 0.02        : 0
    faces with volume ratio of neighbour cells < 0.01      : 0
    faces with face twist < 0.02                           : 0
    faces on cells with determinant < 0.001                : 0
Successfully moved mesh
Moved mesh in = 0.67 s



Morph iteration 8
-----------------
Calculating patchDisplacement as distance to nearest surface point ...
    non-zone points : attract to nearest of all non-zone surfaces
    zone points     : attract to zone surface only

Wanted displacement : average:2.046889419e-06 min:1.072321589e-07 max:5.531883414e-06
Calculated surface displacement in = 0 s


Detecting near surfaces ...
Overriding nearest with intersection of close gaps at 0 out of 410 points.
Overriding displacement on features :
   implicit features    : true
   explicit features    : false
   multi-patch features : false

Attraction:
    linear   : max:(4.322813479e-06 3.451813686e-06 0) avg:(-1.120249094e-07 -7.331934234e-10 0)
    feature  : max:(3.998239849e-07 9.915389943e-06 0) avg:(-1.947460874e-07 -5.789887537e-09 0)
Feature analysis : total master points :410 of which attracted to :
    feature point   : 0
    feature edge    : 0
    nearest surface : 410
    rest            : 0

--> FOAM Warning : Displacement (-2.918087312e-06 -2.187664981e-15 -1.802867781e-12) at mesh point 3959 coord (-0.005996537918 8.974390663e-15 -0.0025) points through the surrounding patch faces
Smoothing displacement ...
Iteration 0
Iteration 10
Iteration 20
Iteration 30
Iteration 40
Iteration 50
Iteration 60
Iteration 70
Iteration 80
Iteration 90
Displacement smoothed in = 0.03 s


Moving mesh ...

Iteration 0
Moving mesh using displacement scaling : min:1 max:1
Correcting 2-D mesh motion ...done
Checking faces in error :
    non-orthogonality > 65  degrees                        : 0
    faces with face pyramid volume < 1e-13                 : 0
    faces with face-decomposition tet quality < 1e-30      : 0
    faces with concavity > 80  degrees                     : 0
    faces with skewness > 4   (internal) or 20  (boundary) : 0
    faces with interpolation weights (0..1)  < 0.02        : 0
    faces with volume ratio of neighbour cells < 0.01      : 0
    faces with face twist < 0.02                           : 0
    faces on cells with determinant < 0.001                : 0
Successfully moved mesh
Moved mesh in = 0.66 s



Morph iteration 9
-----------------
Calculating patchDisplacement as distance to nearest surface point ...
    non-zone points : attract to nearest of all non-zone surfaces
    zone points     : attract to zone surface only

Wanted displacement : average:3.611189004e-07 min:7.014453158e-09 max:9.707180651e-07
Calculated surface displacement in = 0 s


Detecting near surfaces ...
Overriding nearest with intersection of close gaps at 0 out of 410 points.
Overriding displacement on features :
   implicit features    : true
   explicit features    : false
   multi-patch features : false

Attraction:
    linear   : max:(7.585541757e-07 6.057137316e-07 0) avg:(-1.187583312e-08 -7.416750582e-11 0)
    feature  : max:(3.766778243e-07 9.342538279e-06 0) avg:(-8.757326821e-08 1.887067423e-09 0)
Feature analysis : total master points :410 of which attracted to :
    feature point   : 0
    feature edge    : 0
    nearest surface : 410
    rest            : 0

--> FOAM Warning : Displacement (6.768413134e-09 -4.876266581e-09 0) at mesh point 3939 coord (0.004868172791 -0.003507248719 -0.0025) points through the surrounding patch faces
Smoothing displacement ...
Iteration 0
Iteration 10
Iteration 20
Iteration 30
Iteration 40
Iteration 50
Iteration 60
Iteration 70
Iteration 80
Iteration 90
Displacement smoothed in = 0.03 s


Moving mesh ...

Iteration 0
Moving mesh using displacement scaling : min:1 max:1
Correcting 2-D mesh motion ...done
Checking faces in error :
    non-orthogonality > 65  degrees                        : 0
    faces with face pyramid volume < 1e-13                 : 0
    faces with face-decomposition tet quality < 1e-30      : 0
    faces with concavity > 80  degrees                     : 0
    faces with skewness > 4   (internal) or 20  (boundary) : 0
    faces with interpolation weights (0..1)  < 0.02        : 0
    faces with volume ratio of neighbour cells < 0.01      : 0
    faces with face twist < 0.02                           : 0
    faces on cells with determinant < 0.001                : 0
Successfully moved mesh
Moved mesh in = 0.67 s


Repatching faces according to nearest surface ...
Repatched 0 faces in = 0.01 s


Edge intersection testing:
    Number of edges             : 25456
    Number of edges to retest   : 25156
    Number of intersected edges : 328
Merging 88 sets of faces.

Edge intersection testing:
    Number of edges             : 25368
    Number of edges to retest   : 374
    Number of intersected edges : 240

Undo iteration 0
----------------
Checking faces in error :
    non-orthogonality > 65  degrees                        : 0
    faces with face pyramid volume < 1e-13                 : 0
    faces with face-decomposition tet quality < 1e-30      : 0
    faces with concavity > 80  degrees                     : 0
    faces with skewness > 4   (internal) or 20  (boundary) : 0
    faces with interpolation weights (0..1)  < 0.02        : 0
    faces with volume ratio of neighbour cells < 0.01      : 0
    faces with face twist < 0.02                           : 0
    faces on cells with determinant < 0.001                : 0

Merging all points on surface that
- are used by only two boundary faces and
- make an angle with a cosine of more than 0.8660254038.

Removing 110 straight edge points ...

Edge intersection testing:
    Number of edges             : 25368
    Number of edges to retest   : 374
    Number of intersected edges : 240

Undo iteration 0
----------------
Checking faces in error :
    non-orthogonality > 65  degrees                        : 0
    faces with face pyramid volume < 1e-13                 : 0
    faces with face-decomposition tet quality < 1e-30      : 0
    faces with concavity > 80  degrees                     : 0
    faces with skewness > 4   (internal) or 20  (boundary) : 0
    faces with interpolation weights (0..1)  < 0.02        : 0
    faces with volume ratio of neighbour cells < 0.01      : 0
    faces with face twist < 0.02                           : 0
    faces on cells with determinant < 0.001                : 0
Snapped mesh : cells:7026  faces:25368  points:11566
Cells per refinement level:
    0	696
    1	5714
    2	616
Writing mesh to time constant
Wrote mesh in = 0.06 s.
Mesh snapped in = 11.61 s.
Layer specification as
- final layer thickness ('finalLayerThickness')
- expansion ratio ('expansionRatio')

Shrinking and layer addition phase
----------------------------------

Using mesh parameters 
{
    maxNonOrtho     65;
    maxBoundarySkewness 20;
    maxInternalSkewness 4;
    maxConcave      80;
    minVol          1e-13;
    minTetQuality   1e-30;
    minArea         -1;
    minTwist        0.02;
    minDeterminant  0.001;
    minFaceWeight   0.02;
    minVolRatio     0.01;
    minTriangleTwist -1;
    nSmoothScale    4;
    errorReduction  0.75;
    relaxed
    {
        maxNonOrtho     75;
    }
}



Merging all faces of a cell
---------------------------
    - which are on the same patch
    - which make an angle < 60 degrees (cos:0.5)
    - as long as the resulting face doesn't become concave by more than 90 degrees
      (0=straight, 180=fully concave)

Merging 0 sets of faces.

No faces merged ...

Merging all points on surface that
- are used by only two boundary faces and
- make an angle with a cosine of more than 0.5.

No straight edges simplified and no points removed ...

Checking mesh manifoldness ...

Checking initial mesh ...
Checking faces in error :
    non-orthogonality > 65  degrees                        : 0
    faces with face pyramid volume < 1e-13                 : 0
    faces with face-decomposition tet quality < 1e-30      : 0
    faces with concavity > 80  degrees                     : 0
    faces with skewness > 4   (internal) or 20  (boundary) : 0
    faces with interpolation weights (0..1)  < 0.02        : 0
    faces with volume ratio of neighbour cells < 0.01      : 0
    faces with face twist < 0.02                           : 0
    faces on cells with determinant < 0.001                : 0
Detected 0 illegal faces (concave, zero area or negative cell pyramid volume)
Duplicating 0 points on faceZones of type boundary

Handling points with inconsistent layer specification ...
dupNonManifoldPoints : Found : 0 non-manifold points (out of 11566)

Handling points with inconsistent layer specification ...

Handling non-manifold points ...

Checking patch manifoldness ...
Outside of local patch is multiply connected across edges or points at 0 points.
Set displacement to zero for all 0 non-manifold points

Handling feature edges (angle < 60) ...
Set displacement to zero for points on 0 feature edges

Handling cells with warped patch faces ...
Set displacement to zero on 0 warped faces since layer would be > 0.5 of the size of the bounding box.

patch    faces    layers avg thickness[m]
                         near-wall overall
-----    -----    ------ --------- -------
bottom   306      1      0.000247  0.000247
top      306      1      0.000247  0.000247
cylinder 240      4      5.12e-05  0.000295


Outer iteration : 0
-------------------

Adding in total 0 inter-processor patches to handle extrusion of non-manifold processor boundaries.
Selecting externalDisplacementMeshMover displacementMedialAxis
displacementMedialAxis : Calculating distance to Medial Axis ...
fieldSmoother : Smoothing normals ...
    Iteration 0   residual 0.002660914588
displacementMedialAxis : Inserting points on patch inlet if angle to nearest layer patch > 30 degrees.
displacementMedialAxis : Inserting points on patch outlet if angle to nearest layer patch > 30 degrees.
fieldSmoother : Smoothing normals in interior ...
    Iteration 0   residual 0.06189628129

Layer addition iteration 0
--------------------------

Determining displacement for added points according to pointNormal ...
Detected 0 points with point normal pointing through faces.
Reset displacement at 0 points to average of surrounding points.

displacementMedialAxis : Smoothing using Medial Axis ...
displacementMedialAxis : Reducing layer thickness at 0 nodes where thickness to medial axis distance is large 
displacementMedialAxis : Removing isolated regions ...
- if partially extruded faces make angle < 30
- if exclusively surrounded by non-extruded faces
displacementMedialAxis : Number of isolated points extrusion stopped : 0
fieldSmoother : Smoothing field ...
    Iteration 0   residual 1.752853316e-07
displacementMedialAxis : Moving mesh ...
displacementMedialAxis : Iteration 0
Moving mesh using displacement scaling : min:1 max:1
Correcting 2-D mesh motion--> FOAM Warning : 
    From void Foam::twoDPointCorrector::calcAddressing() const
    in file twoDPointCorrector/twoDPointCorrector.C at line 162
    The number of points in the mesh is not equal to twice the number of edges normal to the plane - this may be OK only for wedge geometries.
    Please check the geometry or adjust the orthogonality tolerance.

Number of normal edges: 7606 number of points: 11566
 ...done
Checking faces in error :
    non-orthogonality > 65  degrees                        : 2
    faces with face pyramid volume < 1e-13                 : 0
    faces with face-decomposition tet quality < 1e-30      : 0
    faces with concavity > 80  degrees                     : 0
    faces with skewness > 4   (internal) or 20  (boundary) : 0
    faces with interpolation weights (0..1)  < 0.02        : 0
    faces with volume ratio of neighbour cells < 0.01      : 0
    faces with face twist < 0.02                           : 0
    faces on cells with determinant < 0.001                : 0
displacementMedialAxis : Iteration 1
Moving mesh using displacement scaling : min:0.75 max:1
Correcting 2-D mesh motion ...done
Checking faces in error :
    non-orthogonality > 65  degrees                        : 0
    faces with face pyramid volume < 1e-13                 : 0
    faces with face-decomposition tet quality < 1e-30      : 0
    faces with concavity > 80  degrees                     : 0
    faces with skewness > 4   (internal) or 20  (boundary) : 0
    faces with interpolation weights (0..1)  < 0.02        : 0
    faces with volume ratio of neighbour cells < 0.01      : 0
    faces with face twist < 0.02                           : 0
    faces on cells with determinant < 0.001                : 0
displacementMedialAxis : Successfully moved mesh
displacementMedialAxis : Finished moving mesh ...
truncateDisplacement : Unextruded 0 faces due to non-consecutive vertices being extruded.
truncateDisplacement : Unextruded 0 faces due to stringed edges with inconsistent extrusion.

Setting up information for layer truncation ...
Detected 0 baffles across faceZones of type internal


Checking mesh with layer ...
Checking faces in error :
    non-orthogonality > 65  degrees                        : 0
    faces with face pyramid volume < 1e-13                 : 0
    faces with face-decomposition tet quality < 1e-30      : 0
    faces with concavity > 80  degrees                     : 0
    faces with skewness > 4   (internal) or 20  (boundary) : 0
    faces with interpolation weights (0..1)  < 0.02        : 0
    faces with volume ratio of neighbour cells < 0.01      : 0
    faces with face twist < 0.02                           : 0
    faces on cells with determinant < 0.001                : 0
Detected 0 illegal faces (concave, zero area or negative cell pyramid volume)
Extruding 852 out of 852 faces (100%). Removed extrusion at 0 faces.
Added 1572 out of 1572 cells (100%).
Edge intersection testing:
    Number of edges             : 30692
    Number of edges to retest   : 0
    Number of intersected edges : 1200
Mesh with layers : cells:8598  faces:30692  points:13748

patch    faces        layers        overall thickness
                  target   mesh     [m]       [%]
-----    -----    -----    ----     ---       ---
bottom   306      1        1        0.000236  99.6    
top      306      1        1        0.000236  99.6    
cylinder 240      4        4        0.000294  99.5    

Writing 1572 added cells to cellSet addedCells
Writing 720 faces inside added layer to faceSet layerFaces
Layer mesh : cells:8598  faces:30692  points:13748
Cells per refinement level:
    0	812
    1	6210
    2	1576
Writing mesh to time constant
Wrote mesh in = 0.07 s.
Layers added in = 1.93 s.
Checking final mesh ...
Checking faces in error :
    non-orthogonality > 65  degrees                        : 0
    faces with face pyramid volume < 1e-13                 : 0
    faces with face-decomposition tet quality < 1e-30      : 0
    faces with concavity > 80  degrees                     : 0
    faces with skewness > 4   (internal) or 20  (boundary) : 0
    faces with interpolation weights (0..1)  < 0.02        : 0
    faces with volume ratio of neighbour cells < 0.01      : 0
    faces with face twist < 0.02                           : 0
    faces on cells with determinant < 0.001                : 0
Finished meshing without any errors
Finished meshing in = 13.98 s.
End

